geometry optimzed in LAMMPS
_audit_creation_date              2020-12-01 
_audit_creation_method            'lammps2cif' 
_symmetry_space_group_name_H-M    'P1' 
_symmetry_Int_Tables_number       1 
_symmetry_cell_setting            triclinic 
loop_ 
_symmetry_equiv_pos_as_xyz 
  x,y,z 
_cell_length_a                    44.02051954 
_cell_length_b                    44.05579156902389 
_cell_length_c                    36.368702696056005 
_cell_angle_alpha                 89.95623287893535 
_cell_angle_beta                  89.88586322763834 
_cell_angle_gamma                 120.46178776841116 
loop_ 
_atom_site_label 
_atom_site_type_symbol 
_atom_site_fract_x 
_atom_site_fract_y 
_atom_site_fract_z 
_atom_site_charge 
C1          C  0.10666370  0.17059863  0.37753489     0.79900
N2          N  0.09549651  0.15162458  0.40955284    -0.78400
C3          C  0.07372327  0.11625678  0.40835818     0.82400
N4          N  0.06358324  0.10048812  0.37537223    -0.78300
C5          C  0.07554253  0.11804236  0.34335788     0.82400
N6          N  0.09753640  0.15352566  0.34426830    -0.80100
C7          C  0.16306275  0.47575627  0.37331174     0.79900
N8          N  0.15440880  0.98478922  0.40627648    -0.78400
C9          C  0.14071878  0.00635940  0.40662088     0.82400
N10         N  0.13582971  0.01827066  0.37434344    -0.78300
C11         C  0.14221101  0.00838880  0.34154898     0.82400
N12         N  0.15585551  0.98685127  0.34092887    -0.80100
C13         C  0.21655411  0.37989292  0.37769626     0.79900
N14         N  0.19248778  0.34488602  0.37668942    -0.78400
C15         C  0.20317765  0.32091975  0.37708379     0.82400
N16         N  0.23804262  0.33204473  0.37835166    -0.78300
C17         C  0.26230622  0.36688290  0.37889271     0.82400
N18         N  0.25147713  0.39080743  0.37831603    -0.80100
C19         C  0.41141776  0.41713387  0.37271837     0.79900
N20         N  0.43015023  0.42595575  0.34051510    -0.78400
C21         C  0.46553339  0.43990421  0.34134726     0.82400
N22         N  0.48150695  0.44490238  0.37413802    -0.78300
C23         C  0.46406988  0.43836144  0.40635534     0.82400
N24         N  0.42862953  0.42448518  0.40578951    -0.80100
Zn25       Zn  0.06673261  0.06633743  0.01505878     1.49700
Zn26       Zn  0.05913242  0.02017171  0.44948710     1.49400
Zn27       Zn  0.09684683  0.01089140  0.01433498     1.49100
Zn28       Zn  0.01057974  0.48066579  0.01488399     1.49500
O29         O  0.05822024  0.01940058  0.50015190    -1.84400
O30         O  0.07521461  0.10164777  0.47267505    -0.75100
O31         O  0.09877014  0.01837037  0.42875897    -0.74900
O32         O  0.13162018  0.05230144  0.04487565    -0.74400
O33         O  0.06126813  0.06177908  0.42928643    -0.75100
O34         O  0.10778589  0.08648599  0.05011994    -0.74700
O35         O  0.12362286  0.00252953  0.47131228    -0.75300
O36         O  0.01717094  0.44648290  0.04615810    -0.74700
O37         O  0.01755633  0.48075774  0.42918378    -0.75400
O38         O  0.07561772  0.47008677  0.05016397    -0.74800
O39         O  0.47626698  0.45366117  0.47137641    -0.75300
O40         O  0.48995307  0.50134774  0.05043620    -0.75200
O41         O  0.02581429  0.05960834  0.04607380    -0.75000
C42         C  0.06933063  0.09250682  0.43902990     0.76800
C43         C  0.12097422  0.00958366  0.43787241     0.77300
C44         C  0.13075248  0.07833162  0.05902581     0.76300
C45         C  0.04426875  0.44748976  0.06000071     0.76600
C46         C  0.48653373  0.45753707  0.43798367     0.77800
C47         C  0.49912763  0.03279606  0.05992113     0.76800
Zn48       Zn  0.06148471  0.02306006  0.29968901     1.49700
Zn49       Zn  0.09917380  0.01425495  0.23404847     1.49400
Zn50       Zn  0.01376004  0.48519637  0.23461477     1.49100
Zn51       Zn  0.07014157  0.07094260  0.23480894     1.49500
O52         O  0.06125062  0.02348836  0.24904874    -1.84400
O53         O  0.10128156  0.02167376  0.31971796    -0.75100
O54         O  0.07733835  0.47268584  0.19913591    -0.74900
O55         O  0.47918913  0.45816027  0.27746853    -0.74400
O56         O  0.12624328  0.00619143  0.27681585    -0.75100
O57         O  0.02012836  0.48258784  0.32021585    -0.74700
O58         O  0.01917700  0.45043943  0.20364949    -0.75300
O59         O  0.02913313  0.06460967  0.20370634    -0.74700
O60         O  0.13311143  0.05504642  0.20230944    -0.75400
O61         O  0.49393874  0.50624226  0.19952038    -0.74800
O62         O  0.11108366  0.09097802  0.19904941    -0.75300
O63         O  0.07875819  0.10567448  0.27831381    -0.75200
O64         O  0.06346764  0.06434645  0.32048607    -0.75000
C65         C  0.12341831  0.01289129  0.31034565     0.76800
C66         C  0.04576630  0.45037545  0.18989560     0.77300
C67         C  0.48902951  0.46024146  0.31074503     0.76300
C68         C  0.50276885  0.03749110  0.18985109     0.76600
C69         C  0.13290349  0.08166654  0.18880361     0.77800
C70         C  0.07208494  0.09549876  0.31171552     0.76800
C71         C  0.20635168  0.11545089  0.12256543     0.79900
N72         N  0.18792382  0.10716914  0.09051092    -0.78400
C73         C  0.15282218  0.09525484  0.09105650     0.82400
N74         N  0.13615176  0.09061205  0.12365304    -0.78300
C75         C  0.15390559  0.09752068  0.15575366     0.82400
N76         N  0.18901381  0.10954283  0.15522517    -0.80100
C77         C  0.46575001  0.07408938  0.12393608     0.79900
N78         N  0.47112846  0.06153351  0.09183630    -0.78400
C79         C  0.48314397  0.03856849  0.09249344     0.82400
N80         N  0.49037208  0.02898342  0.12519701    -0.78300
C81         C  0.48625859  0.04219146  0.15719213     0.82400
N82         N  0.47455632  0.06537487  0.15654608    -0.80100
C83         C  0.40563021  0.16467264  0.12350095     0.79900
N84         N  0.42792129  0.20011581  0.12438008    -0.78400
C85         C  0.41540946  0.22263684  0.12537155     0.82400
N86         N  0.38003535  0.20935872  0.12605148    -0.78300
C87         C  0.35735294  0.17406306  0.12558336     0.82400
N88         N  0.37033916  0.15192919  0.12415529    -0.80100
C89         C  0.00595064  0.37425861  0.12691815     0.79900
N90         N  0.01641914  0.39139344  0.09401111    -0.78400
C91         C  0.03925584  0.42667148  0.09311127     0.82400
N92         N  0.05085769  0.44465110  0.12501779    -0.78300
C93         C  0.03981658  0.42814967  0.15783852     0.82400
N94         N  0.01674458  0.39292012  0.15883210    -0.80100
C95         C  0.42944875  0.28202761  0.14618550    -0.20600
C96         C  0.43977687  0.26137479  0.12626766    -0.07200
C97         C  0.47228828  0.27832463  0.10692194     0.13700
C98         C  0.99301305  0.31519949  0.10757667    -0.20700
C99         C  0.98271172  0.33561293  0.12769183    -0.07200
C100        C  0.45058811  0.31885925  0.14743569     0.13700
C101        C  0.43795448  0.33965912  0.16886575    -0.24000
H102        H  0.40474981  0.26924565  0.16120801     0.15000
H103        H  0.01773218  0.32829361  0.09255177     0.15000
C104        C  0.48516201  0.25812513  0.08474261    -0.24000
H105        H  0.41143669  0.32237411  0.18102449     0.05200
H106        H  0.43631182  0.35888868  0.15045058     0.08400
H107        H  0.45636092  0.35386701  0.19175503     0.08400
H108        H  0.46504128  0.24143161  0.06408927     0.08400
H109        H  0.49074452  0.24147282  0.10318481     0.08400
H110        H  0.01003849  0.27593810  0.06984351     0.05200
C111        C  0.41731632  0.08492103  0.10911755    -0.20600
C112        C  0.45121414  0.09776949  0.12326596    -0.07200
C113        C  0.47027219  0.13252305  0.13666612     0.13700
C114        C  0.45466512  0.15349322  0.13612668    -0.20700
C115        C  0.42020282  0.14057149  0.12285047    -0.07200
C116        C  0.40131233  0.10559267  0.10899791     0.13700
C117        C  0.36463665  0.08965996  0.09342095    -0.24000
H118        H  0.40302242  0.05821024  0.09870484     0.15000
H119        H  0.46950842  0.18012574  0.14661907     0.15000
C120        C  0.50741400  0.14788312  0.15065823    -0.24000
H121        H  0.35517435  0.06296778  0.08199380     0.05200
H122        H  0.36433551  0.10644292  0.07080153     0.08400
H123        H  0.34581015  0.08683298  0.11535534     0.08400
H124        H  0.02431634  0.14640013  0.12872257     0.08400
H125        H  0.50771007  0.13304007  0.17517682     0.08400
H126        H  0.01902311  0.17587717  0.15861999     0.05200
C127        C  0.29795052  0.13067689  0.10242740    -0.20600
C128        C  0.31876180  0.15963277  0.12521920    -0.07200
C129        C  0.30224011  0.17360804  0.14730418     0.13700
C130        C  0.26551760  0.15835256  0.14580651    -0.20700
C131        C  0.24486587  0.12998390  0.12239508    -0.07200
C132        C  0.26126466  0.11585001  0.10044251     0.13700
C133        C  0.24030284  0.08451656  0.07580494    -0.24000
H134        H  0.31055675  0.11985963  0.08564181     0.15000
H135        H  0.25280593  0.16896463  0.16274870     0.15000
C136        C  0.32278248  0.20387303  0.17330815    -0.24000
H137        H  0.25724516  0.07565508  0.06258364     0.05200
H138        H  0.22769384  0.09143188  0.05352382     0.08400
H139        H  0.21977680  0.06216569  0.09212269     0.08400
H140        H  0.34028007  0.22815647  0.15753074     0.08400
H141        H  0.33867283  0.19763019  0.19218364     0.08400
H142        H  0.30517747  0.20940040  0.19035596     0.05200
C143        C  0.35186118  0.37682632  0.39748500    -0.20600
C144        C  0.37304858  0.40337272  0.37226352    -0.07200
C145        C  0.35746470  0.41742564  0.34890353     0.13700
C146        C  0.32136291  0.40527021  0.35231979    -0.20700
C147        C  0.30020771  0.37868874  0.37745617    -0.07200
C148        C  0.31551214  0.36383780  0.39998323     0.13700
C149        C  0.29403814  0.33511712  0.42744981    -0.24000
H150        H  0.36385425  0.36604619  0.41523417     0.15000
H151        H  0.30939060  0.41621137  0.33479532     0.15000
C152        C  0.37858893  0.44586410  0.32101781    -0.24000
H153        H  0.31080000  0.32829697  0.44424180     0.05200
H154        H  0.27452524  0.31083823  0.41296382     0.08400
H155        H  0.28017426  0.34383828  0.44642111     0.08400
H156        H  0.38899098  0.43563281  0.29953919     0.08400
H157        H  0.40070322  0.46896714  0.33479286     0.08400
H158        H  0.36230169  0.45498674  0.30686952     0.05200
C159        C  0.20229095  0.45620178  0.39980292    -0.20600
C160        C  0.17744602  0.45170999  0.37292917    -0.07200
C161        C  0.16591582  0.42358789  0.34753438     0.13700
C162        C  0.17946147  0.40089123  0.34984616    -0.20700
C163        C  0.20449423  0.40564599  0.37640689    -0.07200
C164        C  0.21613164  0.43366524  0.40174430     0.13700
C165        C  0.24197262  0.43907947  0.43175232    -0.24000
H166        H  0.21094820  0.47751915  0.41940535     0.15000
H167        H  0.17049565  0.37920888  0.33064712     0.15000
C168        C  0.13836690  0.41622672  0.31879703    -0.24000
H169        H  0.24672392  0.46111758  0.45023549     0.05200
H170        H  0.26767429  0.44546518  0.41956826     0.08400
H171        H  0.23155089  0.41481582  0.44868951     0.08400
H172        H  0.14869320  0.43802717  0.29847226     0.08400
H173        H  0.11420931  0.41309978  0.33209105     0.08400
H174        H  0.13082806  0.39166831  0.30334767     0.05200
C175        C  0.18083685  0.26216295  0.40422309    -0.20600
C176        C  0.17737571  0.28289462  0.37727120    -0.07200
C177        C  0.15080219  0.26679061  0.35038605     0.13700
C178        C  0.12805761  0.23013957  0.35138461    -0.20700
C179        C  0.13108922  0.20924981  0.37871464    -0.06600
C180        C  0.15802517  0.22561595  0.40553558     0.13700
C181        C  0.16407065  0.20499702  0.43484421    -0.24000
H182        H  0.20160041  0.27477584  0.42449846     0.15000
H183        H  0.10771347  0.21770348  0.33067696     0.15000
C184        C  0.14726812  0.28789126  0.31979578    -0.24000
H185        H  0.18801723  0.22201920  0.45131737     0.05200
H186        H  0.16764975  0.18417626  0.42195305     0.08400
H187        H  0.14146695  0.19302119  0.45424095     0.08400
H188        H  0.17245793  0.30223793  0.30429082     0.08400
H189        H  0.14049471  0.30704223  0.33128887     0.08400
H190        H  0.12619448  0.27080884  0.30013735     0.05200
C191        C  0.10672263  0.17065507  0.87753389     0.79900
N192        N  0.09557557  0.15167473  0.90955182    -0.78400
C193        C  0.07383453  0.11630116  0.90835142     0.82400
N194        N  0.06370838  0.10053607  0.87536489    -0.78300
C195        C  0.07564593  0.11809667  0.84335269     0.82400
N196        N  0.09760647  0.15358540  0.84426425    -0.80100
C197        C  0.16311353  0.47588208  0.87332300     0.79900
N198        N  0.15435519  0.98464993  0.90625105    -0.78400
C199        C  0.14063411  0.00619442  0.90660446     0.82400
N200        N  0.13572840  0.01809838  0.87433276    -0.78300
C201        C  0.14212485  0.00824005  0.84153459     0.82400
N202        N  0.15580081  0.98673007  0.84090113    -0.80100
C203        C  0.21654208  0.37996816  0.87770409     0.79900
N204        N  0.19247279  0.34496108  0.87668547    -0.78400
C205        C  0.20316123  0.32099306  0.87707297     0.82400
N206        N  0.23802528  0.33211654  0.87834561    -0.78300
C207        C  0.26229023  0.36695281  0.87889836     0.82400
N208        N  0.25146448  0.39087956  0.87832807    -0.80100
C209        C  0.41139047  0.41715546  0.87272813     0.79900
N210        N  0.43012097  0.42597422  0.84052359    -0.78400
C211        C  0.46550344  0.43992028  0.84135318     0.82400
N212        N  0.48147855  0.44491761  0.87414268    -0.78300
C213        C  0.46404355  0.43837571  0.90636130     0.82400
N214        N  0.42860372  0.42450335  0.90579846    -0.80100
Zn215      Zn  0.06676638  0.06636517  0.51507378     1.49700
Zn216      Zn  0.05912105  0.02014601  0.94946574     1.49400
Zn217      Zn  0.09682994  0.01088386  0.51434310     1.49100
Zn218      Zn  0.01058181  0.48064217  0.51488612     1.49500
O219        O  0.05821500  0.01937900  0.00013016    -1.84400
O220        O  0.07521032  0.10165170  0.97268101    -0.75100
O221        O  0.09865952  0.01816327  0.92874768    -0.74900
O222        O  0.13160521  0.05226581  0.54491118    -0.74400
O223        O  0.06142382  0.06183420  0.92927253    -0.75100
O224        O  0.10783993  0.08651446  0.55011525    -0.74700
O225        O  0.12363724  0.00249362  0.97132295    -0.75300
O226        O  0.01718409  0.44646583  0.54615308    -0.74700
O227        O  0.01758221  0.48075206  0.92918032    -0.75400
O228        O  0.07563346  0.47009655  0.55018672    -0.74800
O229        O  0.47625625  0.45364434  0.97138793    -0.75300
O230        O  0.48994878  0.50136948  0.55042394    -0.75200
O231        O  0.02586607  0.05965455  0.54610914    -0.75000
C232        C  0.06942966  0.09254463  0.93902204     0.76800
C233        C  0.12090654  0.00943524  0.93786482     0.77300
C234        C  0.13077620  0.07832384  0.55904022     0.76300
C235        C  0.04428441  0.44749117  0.56001313     0.76600
C236        C  0.48651175  0.45754168  0.93799014     0.77800
C237        C  0.49910514  0.03273513  0.55991705     0.76800
Zn238      Zn  0.06147452  0.02305998  0.79970016     1.49700
Zn239      Zn  0.09915288  0.01423853  0.73404958     1.49400
Zn240      Zn  0.01377277  0.48521265  0.73461824     1.49100
Zn241      Zn  0.07014764  0.07095363  0.73480865     1.49500
O242        O  0.06123722  0.02348783  0.74905949    -1.84400
O243        O  0.10118796  0.02151689  0.81971458    -0.75100
O244        O  0.07734069  0.47268952  0.69914415    -0.74900
O245        O  0.47917102  0.45813611  0.77746287    -0.74400
O246        O  0.12621997  0.00614051  0.77679253    -0.75100
O247        O  0.02016611  0.48256203  0.82020916    -0.74700
O248        O  0.01918019  0.45044639  0.70366124    -0.75300
O249        O  0.02914740  0.06462971  0.70370342    -0.74700
O250        O  0.13310381  0.05502887  0.70232271    -0.75400
O251        O  0.49392490  0.50623208  0.69951499    -0.74800
O252        O  0.11109225  0.09097367  0.69905269    -0.75300
O253        O  0.07877544  0.10571180  0.77829301    -0.75200
O254        O  0.06361252  0.06441897  0.82047649    -0.75000
C255        C  0.12334618  0.01276607  0.81033433     0.76800
C256        C  0.04576717  0.45037847  0.68990711     0.77300
C257        C  0.48899914  0.46025292  0.81074886     0.76300
C258        C  0.50275933  0.03746476  0.68984760     0.76600
C259        C  0.13290808  0.08165420  0.68881509     0.77800
C260        C  0.07218216  0.09555738  0.81170508     0.76800
C261        C  0.20636782  0.11541075  0.62259504     0.79900
N262        N  0.18794579  0.10713492  0.59053603    -0.78400
C263        C  0.15284679  0.09523704  0.59107383     0.82400
N264        N  0.13617312  0.09060302  0.62366633    -0.78300
C265        C  0.15391966  0.09750420  0.65577055     0.82400
N266        N  0.18902493  0.10951095  0.65525049    -0.80100
C267        C  0.46572137  0.07403069  0.62391415     0.79900
N268        N  0.47109819  0.06146647  0.59182045    -0.78400
C269        C  0.48311966  0.03850695  0.59248702     0.82400
N270        N  0.49035521  0.02893493  0.62519458    -0.78300
C271        C  0.48624363  0.04215218  0.65718456     0.82400
N272        N  0.47453573  0.06533089  0.65652824    -0.80100
C273        C  0.40565036  0.16465382  0.62348715     0.79900
N274        N  0.42794431  0.20009602  0.62438117    -0.78400
C275        C  0.41543730  0.22262067  0.62539901     0.82400
N276        N  0.38006203  0.20934429  0.62609080    -0.78300
C277        C  0.35737694  0.17404784  0.62560760     0.82400
N278        N  0.37036116  0.15191384  0.62415376    -0.80100
C279        C  0.00592764  0.37426588  0.62692292     0.79900
N280        N  0.01641351  0.39140153  0.59401958    -0.78400
C281        C  0.03926648  0.42667445  0.59312338     0.82400
N282        N  0.05087027  0.44465112  0.62503147    -0.78300
C283        C  0.03981275  0.42814948  0.65785071     0.82400
N284        N  0.01672170  0.39292320  0.65883975    -0.80100
C285        C  0.42948168  0.28201877  0.64620307    -0.20600
C286        C  0.43981234  0.26136071  0.62629880    -0.07200
C287        C  0.47233454  0.27830871  0.60696928     0.13700
C288        C  0.99297613  0.31521328  0.60755093    -0.20700
C289        C  0.98268156  0.33562275  0.62768426    -0.07200
C290        C  0.45062178  0.31885129  0.64744693     0.13700
C291        C  0.43798925  0.33965422  0.66887310    -0.24000
H292        H  0.40477932  0.26924037  0.66121963     0.15000
H293        H  0.01769309  0.32830896  0.59252228     0.15000
C294        C  0.48522683  0.25810638  0.58482328    -0.24000
H295        H  0.41147201  0.32237117  0.68103372     0.05200
H296        H  0.43634675  0.35888217  0.65045529     0.08400
H297        H  0.45639652  0.35386424  0.69176126     0.08400
H298        H  0.46512166  0.24140614  0.56416031     0.08400
H299        H  0.49079978  0.24146144  0.60328774     0.08400
H300        H  0.00997325  0.27595830  0.56976294     0.05200
C301        C  0.41730161  0.08488270  0.60908728    -0.20600
C302        C  0.45119967  0.09772184  0.62323099    -0.07200
C303        C  0.47027673  0.13248137  0.63661040     0.13700
C304        C  0.45468228  0.15346232  0.63607320    -0.20700
C305        C  0.42021606  0.14054755  0.62281386    -0.07200
C306        C  0.40131198  0.10556762  0.60896441     0.13700
C307        C  0.36463694  0.08964731  0.59338807    -0.24000
H308        H  0.40299615  0.05816938  0.59868264     0.15000
H309        H  0.46953809  0.18009701  0.64655711     0.15000
C310        C  0.50742584  0.14783589  0.65057819    -0.24000
H311        H  0.35516675  0.06295526  0.58195644     0.05200
H312        H  0.36434208  0.10643649  0.57077179     0.08400
H313        H  0.34581242  0.08682318  0.61532336     0.08400
H314        H  0.02431755  0.14646266  0.62884172     0.08400
H315        H  0.50773075  0.13300414  0.67510266     0.08400
H316        H  0.01897801  0.17590320  0.65875105     0.05200
C317        C  0.29797500  0.13065671  0.60245346    -0.20600
C318        C  0.31878379  0.15961203  0.62524793    -0.07200
C319        C  0.30225602  0.17357060  0.64734731     0.13700
C320        C  0.26553173  0.15830695  0.64585244    -0.20700
C321        C  0.24488302  0.12994247  0.62243375    -0.07200
C322        C  0.26128707  0.11581729  0.60047669     0.13700
C323        C  0.24032902  0.08447839  0.57584460    -0.24000
H324        H  0.31058447  0.11984778  0.58566057     0.15000
H325        H  0.25281658  0.16891022  0.66280205     0.15000
C326        C  0.32279422  0.20382458  0.67336445    -0.24000
H327        H  0.25727596  0.07562349  0.56262139     0.05200
H328        H  0.22771030  0.09138338  0.55356497     0.08400
H329        H  0.21981110  0.06212619  0.59216768     0.08400
H330        H  0.34029217  0.22811551  0.65759790     0.08400
H331        H  0.33868467  0.19757504  0.69223241     0.08400
H332        H  0.30518614  0.20934169  0.69041967     0.05200
C333        C  0.35183144  0.37687188  0.89750468    -0.20600
C334        C  0.37302362  0.40340718  0.87227500    -0.07200
C335        C  0.35744715  0.41746283  0.84890761     0.13700
C336        C  0.32134918  0.40532383  0.85232683    -0.20700
C337        C  0.30018952  0.37875234  0.87746952    -0.07200
C338        C  0.31548494  0.36389657  0.90000272     0.13700
C339        C  0.29400344  0.33518297  0.92747351    -0.24000
H340        H  0.36381810  0.36608871  0.91525879     0.15000
H341        H  0.30938232  0.41626681  0.83479698     0.15000
C342        C  0.37857439  0.44588487  0.82100756    -0.24000
H343        H  0.31075903  0.32835765  0.94426961     0.05200
H344        H  0.27448535  0.31090443  0.91299086     0.08400
H345        H  0.28014509  0.34391411  0.94644044     0.08400
H346        H  0.38896289  0.43563495  0.79953422     0.08400
H347        H  0.40069797  0.46898915  0.83477072     0.08400
H348        H  0.36229315  0.45501175  0.80685399     0.05200
C349        C  0.20232829  0.45631015  0.89980886    -0.20600
C350        C  0.17747678  0.45182063  0.87294512    -0.07200
C351        C  0.16591438  0.42368187  0.84756776     0.13700
C352        C  0.17944391  0.40097197  0.84987874    -0.20700
C353        C  0.20448847  0.40572693  0.87642485    -0.07200
C354        C  0.21615042  0.43375800  0.90175218     0.13700
C355        C  0.24199735  0.43916935  0.93175258    -0.24000
H356        H  0.21100509  0.47763796  0.91940149     0.15000
H357        H  0.17045699  0.37927987  0.83068920     0.15000
C358        C  0.13834670  0.41631739  0.81885189    -0.24000
H359        H  0.24676325  0.46121501  0.95023150     0.05200
H360        H  0.26769261  0.44554248  0.91956159     0.08400
H361        H  0.23157193  0.41490924  0.94869622     0.08400
H362        H  0.14866769  0.43810417  0.79851110     0.08400
H363        H  0.11420613  0.41321525  0.83216346     0.08400
H364        H  0.13078082  0.39174475  0.80341813     0.05200
C365        C  0.18085055  0.26224397  0.90421280    -0.20600
C366        C  0.17736294  0.28296628  0.87726953    -0.07200
C367        C  0.15078128  0.26684877  0.85039459     0.13700
C368        C  0.12805442  0.23019350  0.85139661    -0.20700
C369        C  0.13111770  0.20931277  0.87871578    -0.06600
C370        C  0.15806354  0.22569341  0.90552344     0.13700
C371        C  0.16415046  0.20508597  0.93481112    -0.24000
H372        H  0.20162137  0.27486648  0.92447906     0.15000
H373        H  0.10770430  0.21774629  0.83069675     0.15000
C374        C  0.14722451  0.28793910  0.81980866    -0.24000
H375        H  0.18810174  0.22212055  0.95127255     0.05200
H376        H  0.16774578  0.18428263  0.92190103     0.08400
H377        H  0.14155847  0.19308899  0.95422147     0.08400
H378        H  0.17240716  0.30229094  0.80429223     0.08400
H379        H  0.14044765  0.30708556  0.83130769     0.08400
H380        H  0.12614514  0.27084846  0.80015941     0.05200
C381        C  0.10670538  0.67064728  0.37753781     0.79900
N382        N  0.09556132  0.65166677  0.40955566    -0.78400
C383        C  0.07382391  0.61629279  0.40835579     0.82400
N384        N  0.06369760  0.60052713  0.37536958    -0.78300
C385        C  0.07563219  0.61808801  0.34335710     0.82400
N386        N  0.09758952  0.65357740  0.34426821    -0.80100
C387        C  0.16311329  0.97588946  0.37333084     0.79900
N388        N  0.15435210  0.48464340  0.40626396    -0.78400
C389        C  0.14064358  0.50619858  0.40661585     0.82400
N390        N  0.13574311  0.51810563  0.37434316    -0.78300
C391        C  0.14213210  0.50823957  0.34154544     0.82400
N392        N  0.15579551  0.48671836  0.34091416    -0.80100
C393        C  0.21652093  0.87995855  0.37771602     0.79900
N394        N  0.19245406  0.84495087  0.37669913    -0.78400
C395        C  0.20314548  0.82098520  0.37707879     0.82400
N396        N  0.23801061  0.83211151  0.37834299    -0.78300
C397        C  0.26227342  0.86694879  0.37889386     0.82400
N398        N  0.25144424  0.89087290  0.37833044    -0.80100
C399        C  0.41137910  0.91717104  0.37272130     0.79900
N400        N  0.43011085  0.92599000  0.34051730    -0.78400
C401        C  0.46549287  0.93993102  0.34134840     0.82400
N402        N  0.48146598  0.94492380  0.37413821    -0.78300
C403        C  0.46403034  0.93838256  0.40635613     0.82400
N404        N  0.42859117  0.92451468  0.40579226    -0.80100
Zn405      Zn  0.06675464  0.56636864  0.01506556     1.49700
Zn406      Zn  0.05912734  0.52014535  0.44947223     1.49400
Zn407      Zn  0.09683614  0.51090134  0.01434291     1.49100
Zn408      Zn  0.01057990  0.98063686  0.01488114     1.49500
O409        O  0.05821864  0.51937924  0.50013661    -1.84400
O410        O  0.07521449  0.60164900  0.47268369    -0.75100
O411        O  0.09867549  0.51817815  0.42875606    -0.74900
O412        O  0.13160617  0.55229173  0.04490386    -0.74400
O413        O  0.06141598  0.56182673  0.42927755    -0.75100
O414        O  0.10781593  0.58651674  0.05012263    -0.74700
O415        O  0.12363575  0.50248734  0.47133076    -0.75300
O416        O  0.01718365  0.94645537  0.04613987    -0.74700
O417        O  0.01763590  0.98070665  0.42917526    -0.75400
O418        O  0.07563431  0.97009946  0.05017859    -0.74800
O419        O  0.47624810  0.95363793  0.47138531    -0.75300
O420        O  0.48993751  0.00139011  0.05041045    -0.75200
O421        O  0.02584242  0.55964527  0.04608712    -0.75000
C422        C  0.06942466  0.59253825  0.43902618     0.76800
C423        C  0.12091560  0.50944121  0.43787424     0.77300
C424        C  0.13076266  0.57833876  0.05904160     0.76300
C425        C  0.04428644  0.94748712  0.06000185     0.76600
C426        C  0.48649954  0.95754444  0.43798568     0.77800
C427        C  0.49911353  0.53275243  0.05991973     0.76800
Zn428      Zn  0.06147810  0.52305647  0.29970730     1.49700
Zn429      Zn  0.09915780  0.51423984  0.23405817     1.49400
Zn430      Zn  0.01378013  0.98519598  0.23461066     1.49100
Zn431      Zn  0.07013925  0.57094632  0.23481380     1.49500
O432        O  0.06123743  0.52348355  0.24906584    -1.84400
O433        O  0.10119346  0.52151622  0.31972629    -0.75100
O434        O  0.07735958  0.97269045  0.19913245    -0.74900
O435        O  0.47916595  0.95814794  0.27745944    -0.74400
O436        O  0.12622741  0.50614394  0.27680273    -0.75100
O437        O  0.02020502  0.98250966  0.32019873    -0.74700
O438        O  0.01919753  0.95043741  0.20365151    -0.75300
O439        O  0.02914038  0.56462059  0.20370409    -0.74700
O440        O  0.13310219  0.55503074  0.20232639    -0.75400
O441        O  0.49393077  0.00624256  0.19951550    -0.74800
O442        O  0.11108226  0.59096873  0.19905838    -0.75300
O443        O  0.07876172  0.60570326  0.27829747    -0.75200
O444        O  0.06360950  0.56441315  0.32048227    -0.75000
C445        C  0.12335265  0.51276671  0.31034544     0.76800
C446        C  0.04578706  0.95037570  0.18989554     0.77300
C447        C  0.48899246  0.96026067  0.31074527     0.76300
C448        C  0.50277247  0.53748776  0.18984985     0.76600
C449        C  0.13290002  0.58165282  0.18881834     0.77800
C450        C  0.07217198  0.59554955  0.31170999     0.76800
C451        C  0.20635514  0.61542151  0.12259186     0.79900
N452        N  0.18793194  0.60715290  0.09053427    -0.78400
C453        C  0.15283260  0.59525291  0.09107527     0.82400
N454        N  0.13615975  0.59061059  0.12366994    -0.78300
C455        C  0.15390818  0.59750564  0.15577264     0.82400
N456        N  0.18901337  0.60951345  0.15524885    -0.80100
C457        C  0.46573076  0.57405023  0.12391907     0.79900
N458        N  0.47110653  0.56148551  0.09182440    -0.78400
C459        C  0.48313038  0.53852746  0.09249027     0.82400
N460        N  0.49036947  0.52895826  0.12519734    -0.78300
C461        C  0.48625834  0.54217567  0.15718715     0.82400
N462        N  0.47454738  0.56535144  0.15653202    -0.80100
C463        C  0.40563563  0.66465222  0.12349899     0.79900
N464        N  0.42792744  0.70009476  0.12439205    -0.78400
C465        C  0.41541779  0.72261721  0.12540431     0.82400
N466        N  0.38004249  0.70933844  0.12609282    -0.78300
C467        C  0.35735963  0.67404178  0.12561129     0.82400
N468        N  0.37034548  0.65190885  0.12416144    -0.80100
C469        C  0.00594176  0.87426216  0.12691554     0.79900
N470        N  0.01641957  0.89139679  0.09401064    -0.78400
C471        C  0.03927257  0.92667008  0.09311170     0.82400
N472        N  0.05088384  0.94464766  0.12501860    -0.78300
C473        C  0.03983385  0.92814698  0.15783924     0.82400
N474        N  0.01674359  0.89292079  0.15883078    -0.80100
C475        C  0.42945423  0.78201567  0.14619729    -0.20600
C476        C  0.43978962  0.76135749  0.12630032    -0.07200
C477        C  0.47231266  0.77830554  0.10697254     0.13700
C478        C  0.99298611  0.81520779  0.10754502    -0.20700
C479        C  0.98269578  0.83561873  0.12768164    -0.07200
C480        C  0.45059142  0.81884840  0.14743707     0.13700
C481        C  0.43795352  0.83965237  0.16885281    -0.24000
H482        H  0.40475043  0.76923738  0.16121117     0.15000
H483        H  0.01769956  0.82830247  0.09251019     0.15000
C484        C  0.48520789  0.75810323  0.08483098    -0.24000
H485        H  0.41143524  0.82236936  0.18101122     0.05200
H486        H  0.43631102  0.85887603  0.15042811     0.08400
H487        H  0.45635776  0.85386770  0.19174145     0.08400
H488        H  0.46510393  0.74140030  0.06416823     0.08400
H489        H  0.49078189  0.74146099  0.10329846     0.08400
H490        H  0.00998204  0.77594991  0.06976134     0.05200
C491        C  0.41731650  0.58490413  0.10906583    -0.20600
C492        C  0.45120310  0.59773698  0.12323999    -0.07200
C493        C  0.47025987  0.63248365  0.13665958     0.13700
C494        C  0.45465934  0.65345910  0.13612325    -0.20700
C495        C  0.42020557  0.64055018  0.12282985    -0.07200
C496        C  0.40131948  0.60558236  0.10894762     0.13700
C497        C  0.36465675  0.58966996  0.09334077    -0.24000
H498        H  0.40302478  0.55820009  0.09863442     0.15000
H499        H  0.46949966  0.68008460  0.14663469     0.15000
C500        C  0.50739470  0.64783235  0.15066944    -0.24000
H501        H  0.35520006  0.56298823  0.08188727     0.05200
H502        H  0.36437671  0.60647672  0.07073532     0.08400
H503        H  0.34581366  0.58682488  0.11526393     0.08400
H504        H  0.02432560  0.64645108  0.12871707     0.08400
H505        H  0.50767671  0.63298222  0.17518813     0.08400
H506        H  0.01902603  0.67592211  0.15861797     0.05200
C507        C  0.29796085  0.63066884  0.10243582    -0.20600
C508        C  0.31876767  0.65960709  0.12525058    -0.07200
C509        C  0.30224021  0.67355473  0.14736611     0.13700
C510        C  0.26551735  0.65829791  0.14586665    -0.20700
C511        C  0.24486978  0.62995063  0.12242839    -0.07200
C512        C  0.26127395  0.61583652  0.10045430     0.13700
C513        C  0.24031724  0.58451657  0.07579851    -0.24000
H514        H  0.31057140  0.61986891  0.08563094     0.15000
H515        H  0.25280246  0.66889279  0.16282916     0.15000
C516        C  0.32277767  0.70378915  0.17340535    -0.24000
H517        H  0.25726366  0.57566726  0.06256333     0.05200
H518        H  0.22770599  0.59144103  0.05352790     0.08400
H519        H  0.21979360  0.56215422  0.09210591     0.08400
H520        H  0.34028066  0.72809029  0.15765623     0.08400
H521        H  0.33866283  0.69752293  0.19226263     0.08400
H522        H  0.30516936  0.70929758  0.19047099     0.05200
C523        C  0.35182170  0.87688483  0.39749970    -0.20600
C524        C  0.37301109  0.90341917  0.37226782    -0.07200
C525        C  0.35743003  0.91746800  0.34889738     0.13700
C526        C  0.32133039  0.90532318  0.35231596    -0.20700
C527        C  0.30017393  0.87875270  0.37746140    -0.07200
C528        C  0.31547429  0.86390425  0.39999772     0.13700
C529        C  0.29399684  0.83519313  0.42747232    -0.24000
H530        H  0.36381140  0.86610637  0.41525603     0.15000
H531        H  0.30935995  0.91626119  0.33478430     0.15000
C532        C  0.37855402  0.94588866  0.32099497    -0.24000
H533        H  0.31075555  0.82837322  0.44427013     0.05200
H534        H  0.27448035  0.81091161  0.41299283     0.08400
H535        H  0.28013680  0.84392387  0.44643738     0.08400
H536        H  0.38894627  0.93563993  0.29952434     0.08400
H537        H  0.40067493  0.96899644  0.33475666     0.08400
H538        H  0.36226931  0.95500972  0.30683843     0.05200
C539        C  0.20232873  0.95631680  0.39980966    -0.20600
C540        C  0.17746202  0.95181652  0.37296027    -0.07200
C541        C  0.16587239  0.92365859  0.34760454     0.13700
C542        C  0.17939819  0.90094551  0.34991533    -0.20700
C543        C  0.20446360  0.90571482  0.37644231    -0.07200
C544        C  0.21614563  0.93376037  0.40175438     0.13700
C545        C  0.24200934  0.93918425  0.43174061    -0.24000
H546        H  0.21102297  0.97765762  0.41938847     0.15000
H547        H  0.17039340  0.87924117  0.33073924     0.15000
C548        C  0.13828016  0.91627881  0.31891354    -0.24000
H549        H  0.24678745  0.96123923  0.45021119     0.05200
H550        H  0.26769730  0.94555014  0.41953578     0.08400
H551        H  0.23159192  0.91493216  0.44869615     0.08400
H552        H  0.14858646  0.93805063  0.29855579     0.08400
H553        H  0.11415446  0.91319314  0.33224556     0.08400
H554        H  0.13069460  0.89169305  0.30349654     0.05200
C555        C  0.18083627  0.76223502  0.40421603    -0.20600
C556        C  0.17734850  0.78295807  0.37727404    -0.07200
C557        C  0.15076531  0.76684164  0.35040034     0.13700
C558        C  0.12803743  0.73018653  0.35140197    -0.20700
C559        C  0.13110061  0.70930499  0.37872010    -0.06600
C560        C  0.15804756  0.72568472  0.40552703     0.13700
C561        C  0.16413347  0.70507656  0.43481472    -0.24000
H562        H  0.20160797  0.77485689  0.42448156     0.15000
H563        H  0.10768643  0.71774005  0.33070272     0.15000
C564        C  0.14720781  0.78793330  0.31981637    -0.24000
H565        H  0.18808563  0.72211025  0.45127531     0.05200
H566        H  0.16772662  0.68427181  0.42190480     0.08400
H567        H  0.14154201  0.69308145  0.45422586     0.08400
H568        H  0.17238993  0.80228542  0.30429907     0.08400
H569        H  0.14043178  0.80707963  0.33131743     0.08400
H570        H  0.12612758  0.77084361  0.30016747     0.05200
C571        C  0.10673434  0.67064956  0.87752972     0.79900
N572        N  0.09556840  0.65167404  0.90954844    -0.78400
C573        C  0.07379282  0.61630565  0.90835279     0.82400
N574        N  0.06365022  0.60053930  0.87536682    -0.78300
C575        C  0.07560686  0.61809348  0.84335257     0.82400
N576        N  0.09760240  0.65357667  0.84426261    -0.80100
C577        C  0.16307277  0.97577084  0.87329758     0.79900
N578        N  0.15440011  0.48476988  0.90627145    -0.78400
C579        C  0.14069298  0.50632567  0.90661941     0.82400
N580        N  0.13579640  0.51823400  0.87434469    -0.78300
C581        C  0.14218706  0.50836417  0.84154896     0.82400
N582        N  0.15584931  0.48684238  0.84092373    -0.80100
C583        C  0.21661274  0.87994868  0.87769034     0.79900
N584        N  0.19255010  0.84494047  0.87667562    -0.78400
C585        C  0.20324419  0.82097740  0.87707962     0.82400
N586        N  0.23810938  0.83210739  0.87836480    -0.78300
C587        C  0.26236918  0.86694641  0.87891428     0.82400
N588        N  0.25153646  0.89086778  0.87832779    -0.80100
C589        C  0.41146385  0.91713569  0.87272475     0.79900
N590        N  0.43018949  0.92594279  0.84051836    -0.78400
C591        C  0.46556982  0.93986993  0.84134386     0.82400
N592        N  0.48154771  0.94486333  0.87413292    -0.78300
C593        C  0.46411571  0.93833710  0.90635291     0.82400
N594        N  0.42867949  0.92448175  0.90579127    -0.80100
Zn595      Zn  0.06674039  0.56633893  0.51506354     1.49700
Zn596      Zn  0.05912040  0.52017674  0.94947659     1.49400
Zn597      Zn  0.09684701  0.51088668  0.51434174     1.49100
Zn598      Zn  0.01057834  0.98067617  0.51488355     1.49500
O599        O  0.05821688  0.51940432  0.00014189    -1.84400
O600        O  0.07522594  0.60167136  0.97267586    -0.75100
O601        O  0.09871423  0.51829298  0.92875562    -0.74900
O602        O  0.13162295  0.55229485  0.54488015    -0.74400
O603        O  0.06133690  0.56182459  0.92927681    -0.75100
O604        O  0.10779574  0.58648591  0.55012225    -0.74700
O605        O  0.12363735  0.50254597  0.97132034    -0.75300
O606        O  0.01715860  0.94649401  0.54616831    -0.74700
O607        O  0.01754280  0.98076804  0.92917951    -0.75400
O608        O  0.07560259  0.97006321  0.55015330    -0.74800
O609        O  0.47629455  0.95368149  0.97136175    -0.75300
O610        O  0.48995247  0.00133180  0.55043682    -0.75200
O611        O  0.02582506  0.55961633  0.54607919    -0.75000
C612        C  0.06938504  0.59254762  0.93902391     0.76800
C613        C  0.12094749  0.50954602  0.93787223     0.77300
C614        C  0.13075957  0.57832780  0.55902848     0.76300
C615        C  0.04425153  0.94748195  0.55999914     0.76600
C616        C  0.48657900  0.95751988  0.93797732     0.77800
C617        C  0.49911827  0.53277434  0.55991655     0.76800
Zn618      Zn  0.06147852  0.52307701  0.79969808     1.49700
Zn619      Zn  0.09916512  0.51425753  0.73405397     1.49400
Zn620      Zn  0.01375829  0.98520226  0.73461189     1.49100
Zn621      Zn  0.07015487  0.57096286  0.73480824     1.49500
O622        O  0.06124831  0.52350253  0.74905745    -1.84400
O623        O  0.10124307  0.52162959  0.81972166    -0.75100
O624        O  0.07732787  0.97268472  0.69912630    -0.74900
O625        O  0.47921002  0.95814632  0.77746966    -0.74400
O626        O  0.12623965  0.50619459  0.77681372    -0.75100
O627        O  0.02012207  0.98259474  0.82021189    -0.74700
O628        O  0.01916712  0.95043709  0.70365173    -0.75300
O629        O  0.02915086  0.56463223  0.70369991    -0.74700
O630        O  0.13310761  0.55503979  0.70230974    -0.75400
O631        O  0.49393512  0.00622026  0.69951302    -0.74800
O632        O  0.11109893  0.59098720  0.69905113    -0.75300
O633        O  0.07878301  0.60571067  0.77830293    -0.75200
O634        O  0.06352860  0.56439687  0.82048308    -0.75000
C635        C  0.12339409  0.51286683  0.81034728     0.76800
C636        C  0.04575420  0.95037256  0.68989242     0.77300
C637        C  0.48906183  0.96020784  0.81073965     0.76300
C638        C  0.50275949  0.53747922  0.68984799     0.76600
C639        C  0.13291108  0.58166588  0.68880516     0.77800
C640        C  0.07213754  0.59554598  0.81170948     0.76800
C641        C  0.20635990  0.61544206  0.62256594     0.79900
N642        N  0.18793140  0.60716150  0.59051194    -0.78400
C643        C  0.15283032  0.59524956  0.59105835     0.82400
N644        N  0.13616080  0.59060794  0.62365491    -0.78300
C645        C  0.15391469  0.59751523  0.65575508     0.82400
N646        N  0.18902267  0.60953492  0.65522632    -0.80100
C647        C  0.46573976  0.57406946  0.62392162     0.79900
N648        N  0.47111827  0.56151021  0.59182530    -0.78400
C649        C  0.48313413  0.53854616  0.59248740     0.82400
N650        N  0.49036241  0.52896433  0.62519308    -0.78300
C651        C  0.48624886  0.54217595  0.65718594     0.82400
N652        N  0.47454675  0.56535972  0.65653437    -0.80100
C653        C  0.40563832  0.66466775  0.62348408     0.79900
N654        N  0.42793122  0.70011012  0.62437498    -0.78400
C655        C  0.41542270  0.72263350  0.62537682     0.82400
N656        N  0.38004876  0.70935804  0.62605532    -0.78300
C657        C  0.35736397  0.67406266  0.62557537     0.82400
N658        N  0.37034792  0.65192724  0.62413708    -0.80100
C659        C  0.00592876  0.87425321  0.62691709     0.79900
N660        N  0.01639703  0.89138671  0.59400965    -0.78400
C661        C  0.03923588  0.92666393  0.59310920     0.82400
N662        N  0.05084014  0.94464427  0.62501480    -0.78300
C663        C  0.03979924  0.92814436  0.65783602     0.82400
N664        N  0.01672479  0.89291521  0.65883083    -0.80100
C665        C  0.42946850  0.78202575  0.64619603    -0.20600
C666        C  0.43979409  0.76137114  0.62627764    -0.07200
C667        C  0.47230664  0.77831943  0.60693327     0.13700
C668        C  0.99299724  0.81519399  0.60758646    -0.20700
C669        C  0.98269008  0.83560817  0.62769120    -0.07200
C670        C  0.45060941  0.81885762  0.64744427     0.13700
C671        C  0.43798086  0.83965928  0.66887900    -0.24000
H672        H  0.40477012  0.76924501  0.66121973     0.15000
H673        H  0.01772020  0.82828759  0.59256824     0.15000
C674        C  0.48518348  0.75811826  0.58476163    -0.24000
H675        H  0.41146548  0.82237540  0.68104343     0.05200
H676        H  0.43633522  0.85888836  0.65046583     0.08400
H677        H  0.45639214  0.85386794  0.69176463     0.08400
H678        H  0.46506546  0.74142232  0.56410721     0.08400
H679        H  0.49076466  0.74146856  0.60320940     0.08400
H680        H  0.01003242  0.77593157  0.56986985     0.05200
C681        C  0.41730549  0.58490236  0.60911194    -0.20600
C682        C  0.45120974  0.59775364  0.62324310    -0.07200
C683        C  0.47028265  0.63251613  0.63661447     0.13700
C684        C  0.45467966  0.65348971  0.63607637    -0.20700
C685        C  0.42020862  0.64056437  0.62282424    -0.07200
C686        C  0.40130705  0.60557911  0.60898919     0.13700
C687        C  0.36462485  0.58964359  0.59342877    -0.24000
H688        H  0.40300253  0.55818585  0.59871585     0.15000
H689        H  0.46953374  0.68012782  0.64655153     0.15000
C690        C  0.50743556  0.64788084  0.65057417    -0.24000
H691        H  0.35515467  0.56294609  0.58201239     0.05200
H692        H  0.36431637  0.60641805  0.57080420     0.08400
H693        H  0.34580851  0.58682788  0.61536983     0.08400
H694        H  0.02430536  0.64641171  0.62886271     0.08400
H695        H  0.50774962  0.63305226  0.67509726     0.08400
H696        H  0.01896061  0.67584924  0.65877100     0.05200
C697        C  0.29796154  0.63067936  0.60241574    -0.20600
C698        C  0.31877256  0.65963350  0.62521003    -0.07200
C699        C  0.30224981  0.67360519  0.64729868     0.13700
C700        C  0.26552651  0.65834570  0.64580518    -0.20700
C701        C  0.24487481  0.62997746  0.62239316    -0.07200
C702        C  0.26127507  0.61584947  0.60043389     0.13700
C703        C  0.24031459  0.58451923  0.57579181    -0.24000
H704        H  0.31056834  0.61986542  0.58562619     0.15000
H705        H  0.25281418  0.66895472  0.66275084     0.15000
C706        C  0.32279195  0.70387071  0.67330207    -0.24000
H707        H  0.25725834  0.57566222  0.56256525     0.05200
H708        H  0.22770339  0.59143623  0.55351447     0.08400
H709        H  0.21979049  0.56216477  0.59210726     0.08400
H710        H  0.34028763  0.72815453  0.65752407     0.08400
H711        H  0.33868439  0.69762945  0.69217618     0.08400
H712        H  0.30518671  0.70939658  0.69035133     0.05200
C713        C  0.35191029  0.87686234  0.89750741    -0.20600
C714        C  0.37310120  0.90340085  0.87228105    -0.07200
C715        C  0.35752975  0.91747505  0.84893364     0.13700
C716        C  0.32143201  0.90533649  0.85235618    -0.20700
C717        C  0.30027067  0.87875424  0.87748958    -0.07200
C718        C  0.31556644  0.86389402  0.90001572     0.13700
C719        C  0.29408939  0.83518433  0.92749187    -0.24000
H720        H  0.36389639  0.86607153  0.91525184     0.15000
H721        H  0.30946711  0.91628838  0.83483612     0.15000
C722        C  0.37866391  0.94591734  0.82105495    -0.24000
H723        H  0.31084747  0.82836000  0.94428497     0.05200
H724        H  0.27456720  0.81090408  0.91301499     0.08400
H725        H  0.28023684  0.84391981  0.94646173     0.08400
H726        H  0.38905366  0.93568207  0.79956752     0.08400
H727        H  0.40078790  0.96900875  0.83483408     0.08400
H728        H  0.36238740  0.95505896  0.80691761     0.05200
C729        C  0.20231757  0.95623843  0.89979007    -0.20600
C730        C  0.17747403  0.95173983  0.87291188    -0.07200
C731        C  0.16596526  0.92362738  0.84750762     0.13700
C732        C  0.17952189  0.90094029  0.84982273    -0.20700
C733        C  0.20454829  0.90569794  0.87639247    -0.07200
C734        C  0.21617314  0.93371475  0.90173144     0.13700
C735        C  0.24201755  0.93914090  0.93173995    -0.24000
H736        H  0.21096248  0.97755161  0.91939596     0.15000
H737        H  0.17056930  0.87926259  0.83061948     0.15000
C738        C  0.13842890  0.91626648  0.81875511    -0.24000
H739        H  0.24675855  0.96117578  0.95022299     0.05200
H740        H  0.26772284  0.94553871  0.91955586     0.08400
H741        H  0.23160588  0.91487835  0.94867717     0.08400
H742        H  0.14875878  0.93807482  0.79843951     0.08400
H743        H  0.11425967  0.91312342  0.83203623     0.08400
H744        H  0.13090853  0.89171683  0.80329703     0.05200
C745        C  0.18090242  0.76221988  0.90422020    -0.20600
C746        C  0.17744652  0.78295013  0.87726237    -0.07200
C747        C  0.15088241  0.76684279  0.85036844     0.13700
C748        C  0.12813694  0.73019126  0.85136916    -0.20700
C749        C  0.13116084  0.70930277  0.87870743    -0.06600
C750        C  0.15809226  0.72567214  0.90553270     0.13700
C751        C  0.16413511  0.70505588  0.93484642    -0.24000
H752        H  0.20166058  0.77483458  0.92450091     0.15000
H753        H  0.10779879  0.71775384  0.83065593     0.15000
C754        C  0.14736098  0.78794049  0.81976616    -0.24000
H755        H  0.18807908  0.72207988  0.95132236     0.05200
H756        H  0.16771781  0.68423563  0.92195970     0.08400
H757        H  0.14152866  0.69307987  0.95423967     0.08400
H758        H  0.17255670  0.80228399  0.80427066     0.08400
H759        H  0.14058506  0.80709428  0.83124578     0.08400
H760        H  0.12629439  0.77085626  0.80010213     0.05200
C761        C  0.60672659  0.17065624  0.37753352     0.79900
N762        N  0.59558088  0.15167658  0.40955214    -0.78400
C763        C  0.57384017  0.11630280  0.40835263     0.82400
N764        N  0.56371329  0.10053705  0.37536663    -0.78300
C765        C  0.57564974  0.11809693  0.34335402     0.82400
N766        N  0.59760972  0.15358571  0.34426442    -0.80100
C767        C  0.66311212  0.47587836  0.37332290     0.79900
N768        N  0.65435282  0.98464241  0.40625378    -0.78400
C769        C  0.64062968  0.00618530  0.40660915     0.82400
N770        N  0.63572337  0.01809024  0.37433842    -0.78300
C771        C  0.64212196  0.00823543  0.34153949     0.82400
N772        N  0.65580055  0.98672792  0.34090402    -0.80100
C773        C  0.71654732  0.37996977  0.37769473     0.79900
N774        N  0.69247738  0.34496287  0.37667601    -0.78400
C775        C  0.70316519  0.32099435  0.37706312     0.82400
N776        N  0.73802911  0.33211730  0.37833510    -0.78300
C777        C  0.76229456  0.36695342  0.37888797     0.82400
N778        N  0.75146957  0.39088075  0.37831859    -0.80100
C779        C  0.91139337  0.41715082  0.37272263     0.79900
N780        N  0.93012388  0.42596909  0.34051832    -0.78400
C781        C  0.96550605  0.43991394  0.34134799     0.82400
N782        N  0.98148107  0.44491034  0.37413754    -0.78300
C783        C  0.96404598  0.43836876  0.40635615     0.82400
N784        N  0.92860633  0.42449778  0.40579304    -0.80100
Zn785      Zn  0.56676951  0.06637126  0.01507655     1.49700
Zn786      Zn  0.55912128  0.02014498  0.44946921     1.49400
Zn787      Zn  0.59682968  0.01088633  0.01434794     1.49100
Zn788      Zn  0.51058159  0.48064761  0.01489006     1.49500
O789        O  0.55821521  0.01937902  0.50013352    -1.84400
O790        O  0.57521102  0.10165251  0.47268297    -0.75100
O791        O  0.59865564  0.01815408  0.42875349    -0.74900
O792        O  0.63160590  0.05226857  0.04491523    -0.74400
O793        O  0.56143096  0.06183630  0.42927453    -0.75100
O794        O  0.60784457  0.08652106  0.05011603    -0.74700
O795        O  0.62363654  0.00248903  0.47132938    -0.75300
O796        O  0.51718092  0.44646895  0.04615608    -0.74700
O797        O  0.51758015  0.48075155  0.42918429    -0.75400
O798        O  0.57562992  0.47009786  0.05019111    -0.74800
O799        O  0.97625829  0.45363749  0.47138282    -0.75300
O800        O  0.98994903  0.50136935  0.05042082    -0.75200
O801        O  0.52587111  0.05966154  0.04611480    -0.75000
C802        C  0.56943470  0.09254631  0.43902361     0.76800
C803        C  0.62090322  0.00942681  0.43787053     0.77300
C804        C  0.63077917  0.07832854  0.05904230     0.76300
C805        C  0.54428038  0.44749299  0.06001668     0.76600
C806        C  0.98651398  0.45753542  0.43798500     0.77800
C807        C  0.99910489  0.03273402  0.05991470     0.76800
Zn808      Zn  0.56147441  0.02305857  0.29970416     1.49700
Zn809      Zn  0.59915298  0.01423608  0.23405360     1.49400
Zn810      Zn  0.51377168  0.48521213  0.23462227     1.49100
Zn811      Zn  0.57015193  0.07095311  0.23481245     1.49500
O812        O  0.56123850  0.02348670  0.24906377    -1.84400
O813        O  0.60118869  0.02151727  0.31971931    -0.75100
O814        O  0.57733791  0.47268662  0.19914758    -0.74900
O815        O  0.97917299  0.45813201  0.27745849    -0.74400
O816        O  0.62621728  0.00613613  0.27679769    -0.75100
O817        O  0.52016623  0.48255814  0.32021246    -0.74700
O818        O  0.51917767  0.45044541  0.20366494    -0.75300
O819        O  0.52915239  0.06463174  0.20370880    -0.74700
O820        O  0.63310604  0.05502564  0.20232574    -0.75400
O821        O  0.99392448  0.50623107  0.19951161    -0.74800
O822        O  0.61109533  0.09097105  0.19905594    -0.75300
O823        O  0.57878242  0.10571211  0.27829551    -0.75200
O824        O  0.56361105  0.06441744  0.32047870    -0.75000
C825        C  0.62334484  0.01276359  0.31033922     0.76800
C826        C  0.54576408  0.45037651  0.18991063     0.77300
C827        C  0.98900136  0.46024824  0.31074436     0.76300
C828        C  0.00275842  0.03746250  0.18984511     0.76600
C829        C  0.63291061  0.08165113  0.18881797     0.77800
C830        C  0.57218493  0.09555697  0.31170701     0.76800
C831        C  0.70637094  0.11541628  0.12259678     0.79900
N832        N  0.68794889  0.10714227  0.09053783    -0.78400
C833        C  0.65284925  0.09524104  0.09107633     0.82400
N834        N  0.63617507  0.09060200  0.12366932    -0.78300
C835        C  0.65392175  0.09750168  0.15577327     0.82400
N836        N  0.68902763  0.10951164  0.15525263    -0.80100
C837        C  0.96572486  0.07403288  0.12391174     0.79900
N838        N  0.97110046  0.06146775  0.09181803    -0.78400
C839        C  0.98311929  0.03850605  0.09248452     0.82400
N840        N  0.99035332  0.02893264  0.12519214    -0.78300
C841        C  0.98624307  0.04215084  0.15718219     0.82400
N842        N  0.97453788  0.06533176  0.15652581    -0.80100
C843        C  0.90565201  0.16465456  0.12349138     0.79900
N844        N  0.92794579  0.20009682  0.12438380    -0.78400
C845        C  0.91543864  0.22262132  0.12540172     0.82400
N846        N  0.88006349  0.20934493  0.12609539    -0.78300
C847        C  0.85737864  0.17404853  0.12561379     0.82400
N848        N  0.87036274  0.15191443  0.12415948    -0.80100
C849        C  0.50592200  0.37426556  0.12692465     0.79900
N850        N  0.51640741  0.39140217  0.09402170    -0.78400
C851        C  0.53926104  0.42667504  0.09312634     0.82400
N852        N  0.55086585  0.44465069  0.12503479    -0.78300
C853        C  0.53980878  0.42814819  0.15785362     0.82400
N854        N  0.51671724  0.39292199  0.15884194    -0.80100
C855        C  0.92948335  0.28202025  0.14620212    -0.20600
C856        C  0.93981330  0.26136127  0.12629861    -0.07200
C857        C  0.97233411  0.27830825  0.10696656     0.13700
C858        C  0.49297049  0.31521419  0.10754753    -0.20700
C859        C  0.48267674  0.33562214  0.12768510    -0.07200
C860        C  0.95062323  0.31885273  0.14744363     0.13700
C861        C  0.93799097  0.33965674  0.16886832    -0.24000
H862        H  0.90478163  0.26924259  0.16121993     0.15000
H863        H  0.51768593  0.32831107  0.09251638     0.15000
C864        C  0.98522436  0.25810484  0.08481934    -0.24000
H865        H  0.91147385  0.32237427  0.18102950     0.05200
H866        H  0.93634814  0.35888372  0.15044928     0.08400
H867        H  0.95639846  0.35386787  0.19175596     0.08400
H868        H  0.96511739  0.24140379  0.06415821     0.08400
H869        H  0.99079882  0.24146060  0.10328320     0.08400
H870        H  0.50996763  0.27596135  0.06975515     0.05200
C871        C  0.91730357  0.08488372  0.10908995    -0.20600
C872        C  0.95120347  0.09772432  0.12322896    -0.07200
C873        C  0.97028163  0.13248467  0.13660589     0.13700
C874        C  0.95468632  0.15346492  0.13607118    -0.20700
C875        C  0.92021824  0.14054867  0.12281657    -0.07200
C876        C  0.90131316  0.10556791  0.10896944     0.13700
C877        C  0.86463607  0.08964577  0.09339819    -0.24000
H878        H  0.90299723  0.05816967  0.09868733     0.15000
H879        H  0.96954301  0.18010025  0.14655317     0.15000
C880        C  0.00743260  0.14784061  0.15056845    -0.24000
H881        H  0.85516497  0.06295297  0.08196816     0.05200
H882        H  0.86433794  0.10643302  0.07078169     0.08400
H883        H  0.84581418  0.08682284  0.11533599     0.08400
H884        H  0.52431908  0.14646448  0.12882296     0.08400
H885        H  0.00774107  0.13300988  0.17509216     0.08400
H886        H  0.51898829  0.17591326  0.15872804     0.05200
C887        C  0.79797833  0.13066482  0.10245130    -0.20600
C888        C  0.81878598  0.15961355  0.12525367    -0.07200
C889        C  0.80225798  0.17356800  0.14735859     0.13700
C890        C  0.76553409  0.15830683  0.14586119    -0.20700
C891        C  0.74488623  0.12994848  0.12243517    -0.07200
C892        C  0.76129089  0.11582776  0.10047223     0.13700
C893        C  0.74033404  0.08449580  0.07583123    -0.24000
H894        H  0.81058850  0.11985948  0.08565404     0.15000
H895        H  0.75281861  0.16890676  0.16281526     0.15000
C896        C  0.82279566  0.20381431  0.17338447    -0.24000
H897        H  0.75728115  0.07564301  0.06260438     0.05200
H898        H  0.72771859  0.09140789  0.05355431     0.08400
H899        H  0.71981365  0.06213979  0.09214819     0.08400
H900        H  0.84029679  0.22810903  0.15762500     0.08400
H901        H  0.83868294  0.19755766  0.19224924     0.08400
H902        H  0.80518735  0.20932871  0.19044266     0.05200
C903        C  0.85183353  0.37686909  0.39749744    -0.20600
C904        C  0.87302713  0.40340478  0.37226890    -0.07200
C905        C  0.85745261  0.41746252  0.34890154     0.13700
C906        C  0.82135468  0.40532421  0.35231899    -0.20700
C907        C  0.80019354  0.37875208  0.37746040    -0.07200
C908        C  0.81548729  0.36389509  0.39999426     0.13700
C909        C  0.79400429  0.33518159  0.42746462    -0.24000
H910        H  0.86381886  0.36608459  0.41525161     0.15000
H911        H  0.80938908  0.41626835  0.33478893     0.15000
C912        C  0.87858193  0.44588613  0.32100361    -0.24000
H913        H  0.81075878  0.32835562  0.44426174     0.05200
H914        H  0.77448630  0.31090329  0.41298157     0.08400
H915        H  0.78014574  0.34391321  0.44643073     0.08400
H916        H  0.88897079  0.43563705  0.29952977     0.08400
H917        H  0.90070539  0.46898907  0.33476864     0.08400
H918        H  0.86230210  0.45501487  0.30685031     0.05200
C919        C  0.70232002  0.45629984  0.39981439    -0.20600
C920        C  0.67747926  0.45181976  0.37294134    -0.07200
C921        C  0.66593262  0.42369364  0.34754945     0.13700
C922        C  0.67946276  0.40098421  0.34985937    -0.20700
C923        C  0.70449454  0.40572883  0.37641641    -0.07200
C924        C  0.71614435  0.43374944  0.40175500     0.13700
C925        C  0.74198092  0.43915113  0.43176336    -0.24000
H926        H  0.71098692  0.47761897  0.41941648     0.15000
H927        H  0.67048657  0.37930052  0.33066029     0.15000
C928        C  0.63838186  0.41634188  0.31881728    -0.24000
H929        H  0.74673990  0.46119033  0.45024883     0.05200
H930        H  0.76768042  0.44552867  0.41958019     0.08400
H931        H  0.73155022  0.41488525  0.44869835     0.08400
H932        H  0.64871411  0.43813891  0.29848807     0.08400
H933        H  0.61423235  0.41323086  0.33211549     0.08400
H934        H  0.63082718  0.39177768  0.30337207     0.05200
C935        C  0.68085598  0.26224659  0.40420576    -0.20600
C936        C  0.67736649  0.28296761  0.37726228    -0.07200
C937        C  0.65078256  0.26684882  0.35038985     0.13700
C938        C  0.62805563  0.23019356  0.35139431    -0.20700
C939        C  0.63112103  0.20931415  0.37871361    -0.06600
C940        C  0.65806887  0.22569612  0.40551890     0.13700
C941        C  0.66415763  0.20509011  0.43480670    -0.24000
H942        H  0.70162834  0.27487006  0.42447024     0.15000
H943        H  0.60770397  0.21774530  0.33069617     0.15000
C944        C  0.64722341  0.28793771  0.31980396    -0.24000
H945        H  0.68810990  0.22212551  0.45126641     0.05200
H946        H  0.66775222  0.18428620  0.42189690     0.08400
H947        H  0.64156673  0.19309399  0.45421845     0.08400
H948        H  0.67240468  0.30228832  0.30428497     0.08400
H949        H  0.64044817  0.30708526  0.33130331     0.08400
H950        H  0.62614209  0.27084621  0.30015694     0.05200
C951        C  0.60666577  0.17060366  0.87753483     0.79900
N952        N  0.59550019  0.15163024  0.90955336    -0.78400
C953        C  0.57372814  0.11626220  0.90835957     0.82400
N954        N  0.56358778  0.10049279  0.87537403    -0.78300
C955        C  0.57554537  0.11804656  0.84335919     0.82400
N956        N  0.59753800  0.15353003  0.84426865    -0.80100
C957        C  0.66306224  0.47575767  0.87331182     0.79900
N958        N  0.65440711  0.98478746  0.90627925    -0.78400
C959        C  0.64071438  0.00635535  0.90662491     0.82400
N960        N  0.63582423  0.01826675  0.87434812    -0.78300
C961        C  0.64220786  0.00838803  0.84155314     0.82400
N962        N  0.65585547  0.98685331  0.84093171    -0.80100
C963        C  0.71655661  0.37989772  0.87769315     0.79900
N964        N  0.69249002  0.34489093  0.87668579    -0.78400
C965        C  0.70317975  0.32092456  0.87707875     0.82400
N966        N  0.73804474  0.33204948  0.87834568    -0.78300
C967        C  0.76230832  0.36688766  0.87888733     0.82400
N968        N  0.75147945  0.39081221  0.87831222    -0.80100
C969        C  0.91141925  0.41713968  0.87271515     0.79900
N970        N  0.93015124  0.42596072  0.84051172    -0.78400
C971        C  0.96553401  0.43990701  0.84134347     0.82400
N972        N  0.98150776  0.44490391  0.87413398    -0.78300
C973        C  0.96407112  0.43836365  0.90635152     0.82400
N974        N  0.92863112  0.42448961  0.90578607    -0.80100
Zn975      Zn  0.56673250  0.06633804  0.51506079     1.49700
Zn976      Zn  0.55913335  0.02017558  0.94949102     1.49400
Zn977      Zn  0.59684697  0.01089137  0.51434023     1.49100
Zn978      Zn  0.51057900  0.48066539  0.51488732     1.49500
O979        O  0.55822158  0.01940547  0.00015561    -1.84400
O980        O  0.57521629  0.10165344  0.97267741    -0.75100
O981        O  0.59876650  0.01836627  0.92876437    -0.74900
O982        O  0.63162098  0.05230382  0.54487885    -0.74400
O983        O  0.56127588  0.06178572  0.92928914    -0.75100
O984        O  0.60778616  0.08648812  0.55012106    -0.74700
O985        O  0.62362180  0.00252874  0.97131779    -0.75300
O986        O  0.51716987  0.44648239  0.54616170    -0.74700
O987        O  0.51755455  0.48076265  0.92918890    -0.75400
O988        O  0.57561676  0.47008869  0.55017103    -0.74800
O989        O  0.97626854  0.45366279  0.97137243    -0.75300
O990        O  0.98994994  0.50134045  0.55043158    -0.75200
O991        O  0.52581438  0.05960944  0.54607590    -0.75000
C992        C  0.56933593  0.09251292  0.93903195     0.76800
C993        C  0.62097093  0.00958001  0.93787745     0.77300
C994        C  0.63075322  0.07833462  0.55902746     0.76300
C995        C  0.54426762  0.44749060  0.56000628     0.76600
C996        C  0.98653549  0.45753834  0.93797976     0.77800
C997        C  0.99912284  0.03278898  0.55991561     0.76800
Zn998      Zn  0.56148419  0.02306275  0.79969203     1.49700
Zn999      Zn  0.59917426  0.01425784  0.73405161     1.49400
Zn1000     Zn  0.51375960  0.48519791  0.73461904     1.49100
Zn1001     Zn  0.57014270  0.07094549  0.73481097     1.49500
O1002       O  0.56125103  0.02349123  0.74905193    -1.84400
O1003       O  0.60127933  0.02167399  0.81972164    -0.75100
O1004       O  0.57733722  0.47268742  0.69913919    -0.74900
O1005       O  0.97919024  0.45816077  0.77746436    -0.74400
O1006       O  0.62624273  0.00619357  0.77681954    -0.75100
O1007       O  0.52012671  0.48259154  0.82021969    -0.74700
O1008       O  0.51917567  0.45043886  0.70365623    -0.75300
O1009       O  0.52913411  0.06461226  0.70370828    -0.74700
O1010       O  0.63311286  0.05504902  0.70231135    -0.75400
O1011       O  0.99393863  0.50624077  0.69951529    -0.74800
O1012       O  0.61108493  0.09098041  0.69905140    -0.75300
O1013       O  0.57875989  0.10567812  0.77831509    -0.75200
O1014       O  0.56346957  0.06435044  0.82048767    -0.75000
C1015       C  0.62341638  0.01289187  0.81034954     0.76800
C1016       C  0.54576490  0.45037560  0.68990102     0.77300
C1017       C  0.98903004  0.46024400  0.81074135     0.76300
C1018       C  0.00276510  0.03748835  0.68984490     0.76600
C1019       C  0.63290490  0.08166916  0.68880544     0.77800
C1020       C  0.57208704  0.09550270  0.81171690     0.76800
C1021       C  0.70635364  0.11546014  0.62256583     0.79900
N1022       N  0.68792518  0.10717750  0.59051160    -0.78400
C1023       C  0.65282277  0.09525926  0.59105785     0.82400
N1024       N  0.63615225  0.09061393  0.62365469    -0.78300
C1025       C  0.65390657  0.09752362  0.65575505     0.82400
N1026       N  0.68901557  0.10954927  0.65522598    -0.80100
C1027       C  0.96574866  0.07408774  0.62392781     0.79900
N1028       N  0.97112530  0.06152938  0.59182866    -0.78400
C1029       C  0.98313824  0.03856212  0.59248697     0.82400
N1030       N  0.99036550  0.02897724  0.62519117    -0.78300
C1031       C  0.98625413  0.04218775  0.65718563     0.82400
N1032       N  0.97455438  0.06537318  0.65653820    -0.80100
C1033       C  0.90563062  0.16467304  0.62350013     0.79900
N1034       N  0.92792215  0.20011598  0.62438022    -0.78400
C1035       C  0.91541119  0.22263759  0.62537429     0.82400
N1036       N  0.88003719  0.20936006  0.62605649    -0.78300
C1037       C  0.85735417  0.17406451  0.62558777     0.82400
N1038       N  0.87033949  0.15192982  0.62415644    -0.80100
C1039       C  0.50594912  0.37425861  0.62692317     0.79900
N1040       N  0.51641749  0.39139384  0.59401630    -0.78400
C1041       C  0.53925400  0.42667197  0.59311678     0.82400
N1042       N  0.55085582  0.44465128  0.62502338    -0.78300
C1043       C  0.53981465  0.42814963  0.65784397     0.82400
N1044       N  0.51674282  0.39291994  0.65883734    -0.80100
C1045       C  0.92945062  0.28203018  0.64618229    -0.20600
C1046       C  0.93977951  0.26137556  0.62626896    -0.07200
C1047       C  0.97229252  0.27832383  0.60692578     0.13700
C1048       C  0.49301330  0.31520002  0.60758105    -0.20700
C1049       C  0.48271086  0.33561259  0.62769622    -0.07200
C1050       C  0.95059061  0.31886177  0.64743068     0.13700
C1051       C  0.93795514  0.33966379  0.66885384    -0.24000
H1052       H  0.90475030  0.26924980  0.66120231     0.15000
H1053       H  0.51773310  0.32829485  0.59255748     0.15000
C1054       C  0.98516648  0.25812299  0.58474916    -0.24000
H1055       H  0.91143577  0.32238014  0.68100978     0.05200
H1056       H  0.93631528  0.35889235  0.65043452     0.08400
H1057       H  0.95635898  0.35387308  0.69174455     0.08400
H1058       H  0.96504681  0.24142976  0.56409479     0.08400
H1059       H  0.99074717  0.24147045  0.60319300     0.08400
H1060       H  0.51004223  0.27594036  0.56984979     0.05200
C1061       C  0.91732159  0.08492690  0.60909669    -0.20600
C1062       C  0.95121457  0.09776983  0.62325695    -0.07200
C1063       C  0.97026841  0.13251914  0.63667008     0.13700
C1064       C  0.95466144  0.15348949  0.63613280    -0.20700
C1065       C  0.92020336  0.14057219  0.62284626    -0.07200
C1066       C  0.90131775  0.10559884  0.60897933     0.13700
C1067       C  0.86464766  0.08967308  0.59338928    -0.24000
H1068       H  0.90303077  0.05821982  0.59867369     0.15000
H1069       H  0.96950109  0.18011846  0.64663534     0.15000
C1070       C  0.00740608  0.14787527  0.65067350    -0.24000
H1071       H  0.85518924  0.06298566  0.58195085     0.05200
H1072       H  0.86435463  0.10646576  0.57077585     0.08400
H1073       H  0.84581365  0.08683748  0.61531879     0.08400
H1074       H  0.52431204  0.14639568  0.62873503     0.08400
H1075       H  0.00769511  0.13302581  0.67518960     0.08400
H1076       H  0.51901604  0.17587224  0.65863038     0.05200
C1077       C  0.79795264  0.13068748  0.60242300    -0.20600
C1078       C  0.81876338  0.15963598  0.62522339    -0.07200
C1079       C  0.80224187  0.17360735  0.64731437     0.13700
C1080       C  0.76551970  0.15835504  0.64581437    -0.20700
C1081       C  0.74486819  0.12999321  0.62239493    -0.07200
C1082       C  0.76126735  0.11586407  0.60043549     0.13700
C1083       C  0.74030670  0.08453907  0.57578717    -0.24000
H1084       H  0.81055907  0.11987371  0.58563244     0.15000
H1085       H  0.75280821  0.16896384  0.66276164     0.15000
C1086       C  0.82278420  0.20386421  0.67332744    -0.24000
H1087       H  0.75724893  0.07567957  0.56256182     0.05200
H1088       H  0.72770237  0.09146339  0.55350895     0.08400
H1089       H  0.71977726  0.06218388  0.59209743     0.08400
H1090       H  0.84028519  0.22815153  0.65755731     0.08400
H1091       H  0.83867112  0.19761361  0.69219940     0.08400
H1092       H  0.80517932  0.20938911  0.69037856     0.05200
C1093       C  0.85186291  0.37683226  0.89748110    -0.20600
C1094       C  0.87305048  0.40337950  0.87226053    -0.07200
C1095       C  0.85746707  0.41743320  0.84890099     0.13700
C1096       C  0.82136497  0.40527647  0.85231579    -0.20700
C1097       C  0.80020957  0.37869376  0.87745096    -0.07200
C1098       C  0.81551384  0.36384314  0.89997848     0.13700
C1099       C  0.79403964  0.33512234  0.92744491    -0.24000
H1100       H  0.86385583  0.36605194  0.91523014     0.15000
H1101       H  0.80939275  0.41621787  0.83479159     0.15000
C1102       C  0.87859212  0.44587406  0.82101774    -0.24000
H1103       H  0.81080145  0.32830265  0.94423757     0.05200
H1104       H  0.77452732  0.31084330  0.91295873     0.08400
H1105       H  0.78017503  0.34384314  0.94641566     0.08400
H1106       H  0.88899555  0.43564497  0.79953825     0.08400
H1107       H  0.90070550  0.46897623  0.83479490     0.08400
H1108       H  0.86230509  0.45499733  0.80687014     0.05200
C1109       C  0.70228646  0.45620003  0.89980677    -0.20600
C1110       C  0.67744846  0.45171384  0.87292690    -0.07200
C1111       C  0.66592810  0.42359947  0.84752331     0.13700
C1112       C  0.67947325  0.40090256  0.84983571    -0.20700
C1113       C  0.70449744  0.40565085  0.87640390    -0.07200
C1114       C  0.71612801  0.43366432  0.90174748     0.13700
C1115       C  0.74196294  0.43907324  0.93176031    -0.24000
H1116       H  0.71093768  0.47751244  0.91941462     0.15000
H1117       H  0.67051408  0.37922516  0.83063109     0.15000
C1118       C  0.63839081  0.41624677  0.81877466    -0.24000
H1119       H  0.74671060  0.46110818  0.95024662     0.05200
H1120       H  0.76766694  0.44546095  0.91958096     0.08400
H1121       H  0.73153793  0.41480663  0.94869314     0.08400
H1122       H  0.64872509  0.43805376  0.79845724     0.08400
H1123       H  0.61422734  0.41311456  0.83205927     0.08400
H1124       H  0.63085915  0.39169365  0.80331819     0.05200
C1125       C  0.68084195  0.26216795  0.90421698    -0.20600
C1126       C  0.67737772  0.28289943  0.87726717    -0.07200
C1127       C  0.65080060  0.26679528  0.85038559     0.13700
C1128       C  0.62805601  0.23014425  0.85138534    -0.20700
C1129       C  0.63109087  0.20925483  0.87871341    -0.06600
C1130       C  0.65803004  0.22562110  0.90553090     0.13700
C1131       C  0.66407861  0.20500230  0.93483711    -0.24000
H1132       H  0.70160797  0.27478091  0.92448975     0.15000
H1133       H  0.60770930  0.21770788  0.83068029     0.15000
C1134       C  0.64726238  0.28789571  0.81979789    -0.24000
H1135       H  0.68802724  0.22202447  0.95130751     0.05200
H1136       H  0.66765583  0.18418115  0.92194391     0.08400
H1137       H  0.64147716  0.19302689  0.95423667     0.08400
H1138       H  0.67245009  0.30224232  0.80428936     0.08400
H1139       H  0.64049042  0.30704672  0.83129397     0.08400
H1140       H  0.62618611  0.27081311  0.80014197     0.05200
C1141       C  0.60673584  0.67064903  0.37752905     0.79900
N1142       N  0.59557102  0.65167419  0.40954839    -0.78400
C1143       C  0.57379535  0.61630566  0.40835359     0.82400
N1144       N  0.56365185  0.60053874  0.37536811    -0.78300
C1145       C  0.57560769  0.61809224  0.34335346     0.82400
N1146       N  0.59760314  0.65357542  0.34426244    -0.80100
C1147       C  0.66307243  0.97576666  0.37329911     0.79900
N1148       N  0.65439690  0.48476281  0.40627269    -0.78400
C1149       C  0.64068792  0.50631719  0.40662286     0.82400
N1150       N  0.63579076  0.51822671  0.37434927    -0.78300
C1151       C  0.64218333  0.50836035  0.34155267     0.82400
N1152       N  0.65584792  0.48684081  0.34092516    -0.80100
C1153       C  0.71661768  0.87994858  0.37768414     0.79900
N1154       N  0.69255412  0.84494066  0.37666917    -0.78400
C1155       C  0.70324719  0.82097676  0.37707194     0.82400
N1156       N  0.73811221  0.83210588  0.37835575    -0.78300
C1157       C  0.76237283  0.86694464  0.37890563     0.82400
N1158       N  0.75154120  0.89086690  0.37832089    -0.80100
C1159       C  0.91146650  0.91713002  0.37271926     0.79900
N1160       N  0.93019230  0.92593706  0.34051315    -0.78400
C1161       C  0.96557236  0.93986301  0.34133883     0.82400
N1162       N  0.98155001  0.94485530  0.37412800    -0.78300
C1163       C  0.96411781  0.93832922  0.40634796     0.82400
N1164       N  0.92868174  0.92447505  0.40578595    -0.80100
Zn1165     Zn  0.56674332  0.56634411  0.01506588     1.49700
Zn1166     Zn  0.55911972  0.52017518  0.44947978     1.49400
Zn1167     Zn  0.59684583  0.51088768  0.01434547     1.49100
Zn1168     Zn  0.51057895  0.98068212  0.01488729     1.49500
O1169       O  0.55821637  0.51940391  0.50014496    -1.84400
O1170       O  0.57522488  0.60167094  0.47267728    -0.75100
O1171       O  0.59871048  0.51828532  0.42876074    -0.74900
O1172       O  0.63162316  0.55229578  0.04488335    -0.74400
O1173       O  0.56134091  0.56182504  0.42927838    -0.75100
O1174       O  0.60779976  0.58649050  0.05012314    -0.74700
O1175       O  0.62363552  0.50254076  0.47132545    -0.75300
O1176       O  0.51715651  0.94649833  0.04617173    -0.74700
O1177       O  0.51754064  0.98076906  0.42918410    -0.75400
O1178       O  0.57560014  0.97006651  0.05015942    -0.74800
O1179       O  0.97629577  0.95367483  0.47135670    -0.75300
O1180       O  0.98995204  0.00133072  0.05043404    -0.75200
O1181       O  0.52582960  0.55962345  0.04608367    -0.75000
C1182       C  0.56938728  0.59254775  0.43902507     0.76800
C1183       C  0.62094372  0.50953822  0.43787689     0.77300
C1184       C  0.63076191  0.57833039  0.05903034     0.76300
C1185       C  0.54424854  0.94748554  0.06000396     0.76600
C1186       C  0.98658084  0.95751258  0.43797245     0.77800
C1187       C  0.99911874  0.53277424  0.05991359     0.76800
Zn1188     Zn  0.56147721  0.52307525  0.29970073     1.49700
Zn1189     Zn  0.59916361  0.51425447  0.23405720     1.49400
Zn1190     Zn  0.51375859  0.98520275  0.23461751     1.49100
Zn1191     Zn  0.57015702  0.57096148  0.23481134     1.49500
O1192       O  0.56124789  0.52350063  0.24906041    -1.84400
O1193       O  0.60124404  0.52163239  0.31972542    -0.75100
O1194       O  0.57732567  0.97268200  0.19913096    -0.74900
O1195       O  0.97921199  0.95814141  0.27746536    -0.74400
O1196       O  0.62623468  0.50618934  0.27681820    -0.75100
O1197       O  0.52012223  0.98259259  0.32021673    -0.74700
O1198       O  0.51916528  0.95043688  0.20365714    -0.75300
O1199       O  0.52915336  0.56463342  0.20370528    -0.74700
O1200       O  0.63310855  0.55503655  0.20231317    -0.75400
O1201       O  0.99393424  0.00621779  0.19950975    -0.74800
O1202       O  0.61109958  0.59098358  0.19905318    -0.75300
O1203       O  0.57878830  0.60570991  0.27830513    -0.75200
O1204       O  0.56352310  0.56439356  0.32048458    -0.75000
C1205       C  0.62339189  0.51286531  0.31035120     0.76800
C1206       C  0.54575151  0.95037107  0.18989735     0.77300
C1207       C  0.98906413  0.96020235  0.31073522     0.76300
C1208       C  0.00275950  0.53747847  0.18984505     0.76600
C1209       C  0.63291182  0.58166230  0.18880773     0.77800
C1210       C  0.57213725  0.59554409  0.31171090     0.76800
C1211       C  0.70636179  0.61544458  0.12256857     0.79900
N1212       N  0.68793361  0.60716552  0.09051435    -0.78400
C1213       C  0.65283207  0.59525111  0.09106083     0.82400
N1214       N  0.63616181  0.59060576  0.12365752    -0.78300
C1215       C  0.65391546  0.59751193  0.15575772     0.82400
N1216       N  0.68902385  0.60953387  0.15522900    -0.80100
C1217       C  0.96574438  0.57407309  0.12391817     0.79900
N1218       N  0.97112134  0.56151256  0.09182198    -0.78400
C1219       C  0.98313463  0.53854643  0.09248420     0.82400
N1220       N  0.99036168  0.52896357  0.12519000    -0.78300
C1221       C  0.98624957  0.54217632  0.15718283     0.82400
N1222       N  0.97455020  0.56536233  0.15653101    -0.80100
C1223       C  0.90563968  0.66466828  0.12348688     0.79900
N1224       N  0.92793189  0.70011075  0.12437497    -0.78400
C1225       C  0.91542269  0.72263350  0.12537730     0.82400
N1226       N  0.88004875  0.70935746  0.12605928    -0.78300
C1227       C  0.85736474  0.67406196  0.12558198     0.82400
N1228       N  0.87034914  0.65192694  0.12414294    -0.80100
C1229       C  0.50592135  0.87425434  0.12691908     0.79900
N1230       N  0.51639039  0.89138915  0.09401236    -0.78400
C1231       C  0.53923099  0.92666601  0.09311326     0.82400
N1232       N  0.55083648  0.94464484  0.12501949    -0.78300
C1233       C  0.53979509  0.92814371  0.15784006     0.82400
N1234       N  0.51671881  0.89291492  0.15883358    -0.80100
C1235       C  0.92946994  0.78202668  0.14619380    -0.20600
C1236       C  0.93979353  0.76137108  0.12627436    -0.07200
C1237       C  0.97230374  0.77831815  0.10692578     0.13700
C1238       C  0.49298929  0.81519678  0.10758172    -0.20700
C1239       C  0.48268307  0.83560911  0.12769147    -0.07200
C1240       C  0.95061142  0.81885850  0.14744027     0.13700
C1241       C  0.93798471  0.83966135  0.16887577    -0.24000
H1242       H  0.90477292  0.76924682  0.16121988     0.15000
H1243       H  0.51771057  0.82829185  0.09256069     0.15000
C1244       C  0.98517692  0.75811576  0.08475064    -0.24000
H1245       H  0.91146976  0.82237830  0.18104148     0.05200
H1246       H  0.93633883  0.85889039  0.15046273     0.08400
H1247       H  0.95639712  0.85387012  0.19176053     0.08400
H1248       H  0.96505575  0.74141927  0.06409905     0.08400
H1249       H  0.99076050  0.74146646  0.10319634     0.08400
H1250       H  0.51002327  0.77593726  0.06985746     0.05200
C1251       C  0.91730930  0.58490503  0.10911077    -0.20600
C1252       C  0.95121451  0.59775736  0.12323967    -0.07200
C1253       C  0.97028757  0.63252013  0.13661018     0.13700
C1254       C  0.95468334  0.65349264  0.13607444    -0.20700
C1255       C  0.92021111  0.64056596  0.12282513    -0.07200
C1256       C  0.90130979  0.60558076  0.10899009     0.13700
C1257       C  0.86462662  0.58964420  0.09343199    -0.24000
H1258       H  0.90300634  0.55818836  0.09871516     0.15000
H1259       H  0.96953738  0.68013091  0.14654908     0.15000
C1260       C  0.00744180  0.64788625  0.15056644    -0.24000
H1261       H  0.85515663  0.56294686  0.08201523     0.05200
H1262       H  0.86431621  0.60641834  0.07080819     0.08400
H1263       H  0.84581123  0.58682781  0.11537446     0.08400
H1264       H  0.52430685  0.64641495  0.12884166     0.08400
H1265       H  0.00775865  0.63305803  0.17508854     0.08400
H1266       H  0.51897137  0.67586111  0.15874565     0.05200
C1267       C  0.79796402  0.63068488  0.10241507    -0.20600
C1268       C  0.81877370  0.65963268  0.12521705    -0.07200
C1269       C  0.80225042  0.67359947  0.14731185     0.13700
C1270       C  0.76552745  0.65834199  0.14581599    -0.20700
C1271       C  0.74487679  0.62998008  0.12239623    -0.07200
C1272       C  0.76127796  0.61585682  0.10043111     0.13700
C1273       C  0.74031903  0.58453344  0.07578012    -0.24000
H1274       H  0.81057174  0.61987487  0.08562097     0.15000
H1275       H  0.75281465  0.66894731  0.16276634     0.15000
C1276       C  0.82279185  0.70385699  0.17332444    -0.24000
H1277       H  0.75726320  0.57567872  0.06255011     0.05200
H1278       H  0.72771114  0.59145735  0.05350531     0.08400
H1279       H  0.71979252  0.56217511  0.09208940     0.08400
H1280       H  0.84029063  0.72814494  0.15755396     0.08400
H1281       H  0.83868129  0.69760850  0.19219499     0.08400
H1282       H  0.80518619  0.70937961  0.19037704     0.05200
C1283       C  0.85191193  0.87685573  0.39749810    -0.20600
C1284       C  0.87310432  0.90339669  0.37227487    -0.07200
C1285       C  0.85753469  0.91747421  0.34892943     0.13700
C1286       C  0.82143695  0.90533602  0.35235072    -0.20700
C1287       C  0.80027403  0.87875124  0.37748109    -0.07200
C1288       C  0.81556817  0.86388790  0.40000517     0.13700
C1289       C  0.79408951  0.83517531  0.42747793    -0.24000
H1290       H  0.86389685  0.86606253  0.41524102     0.15000
H1291       H  0.80947339  0.91629039  0.33483224     0.15000
C1292       C  0.87867096  0.94591977  0.32105453    -0.24000
H1293       H  0.81084654  0.82834898  0.44427024     0.05200
H1294       H  0.77456810  0.81089666  0.41299815     0.08400
H1295       H  0.78023605  0.84390886  0.44644883     0.08400
H1296       H  0.88906147  0.93568675  0.29956555     0.08400
H1297       H  0.90079455  0.96900909  0.33483675     0.08400
H1298       H  0.86239576  0.95506379  0.30691866     0.05200
C1299       C  0.70230871  0.95622620  0.39979896    -0.20600
C1300       C  0.67747748  0.95173833  0.37291004    -0.07200
C1301       C  0.66598559  0.92363935  0.34749036     0.13700
C1302       C  0.67954242  0.90095240  0.34980484    -0.20700
C1303       C  0.70455445  0.90569846  0.37638696    -0.07200
C1304       C  0.71616595  0.93370383  0.40173817     0.13700
C1305       C  0.74199807  0.93911865  0.43175621    -0.24000
H1306       H  0.71094281  0.97752997  0.41941507     0.15000
H1307       H  0.67060147  0.87928384  0.33059134     0.15000
C1308       C  0.63846771  0.91629232  0.31872001    -0.24000
H1309       H  0.74673168  0.96114668  0.45024619     0.05200
H1310       H  0.76770807  0.94552056  0.41958149     0.08400
H1311       H  0.73157960  0.91484972  0.44868398     0.08400
H1312       H  0.64881001  0.93811155  0.29841673     0.08400
H1313       H  0.61428889  0.91314005  0.33198637     0.08400
H1314       H  0.63095919  0.89175161  0.30324982     0.05200
C1315       C  0.68090761  0.76221950  0.40421265    -0.20600
C1316       C  0.67744877  0.78294952  0.37725662    -0.07200
C1317       C  0.65088088  0.76684190  0.35036650     0.13700
C1318       C  0.62813499  0.73019038  0.35136892    -0.20700
C1319       C  0.63116219  0.70930228  0.37870532    -0.06600
C1320       C  0.65809708  0.72567186  0.40552681     0.13700
C1321       C  0.66414311  0.70505568  0.43483799    -0.24000
H1322       H  0.70166831  0.77483426  0.42449062     0.15000
H1323       H  0.60779414  0.71775266  0.33065850     0.15000
C1324       C  0.64735565  0.78793916  0.31976632    -0.24000
H1325       H  0.68808917  0.72207963  0.45131109     0.05200
H1326       H  0.66772381  0.68423499  0.42194913     0.08400
H1327       H  0.64153892  0.69308009  0.45423406     0.08400
H1328       H  0.67254921  0.80228185  0.30426701     0.08400
H1329       H  0.64058191  0.80709369  0.33124848     0.08400
H1330       H  0.62628609  0.77085473  0.30010514     0.05200
C1331       C  0.60670754  0.67065122  0.87753734     0.79900
N1332       N  0.59556477  0.65167117  0.90955563    -0.78400
C1333       C  0.57382809  0.61629703  0.90835645     0.82400
N1334       N  0.56370138  0.60053087  0.87537053    -0.78300
C1335       C  0.57563454  0.61809142  0.84335764     0.82400
N1336       N  0.59759104  0.65358092  0.84426803    -0.80100
C1337       C  0.66311366  0.97589063  0.87333285     0.79900
N1338       N  0.65434951  0.48464158  0.90626493    -0.78400
C1339       C  0.64063861  0.50619475  0.90661837     0.82400
N1340       N  0.63573747  0.51810246  0.87434648    -0.78300
C1341       C  0.64212897  0.50823986  0.84154813     0.82400
N1342       N  0.65579512  0.48672119  0.84091523    -0.80100
C1343       C  0.71652394  0.87996241  0.87771692     0.79900
N1344       N  0.69245672  0.84495489  0.87669868    -0.78400
C1345       C  0.70314789  0.82098900  0.87707573     0.82400
N1346       N  0.73801302  0.83211513  0.87833815    -0.78300
C1347       C  0.76227596  0.86695232  0.87889032     0.82400
N1348       N  0.75144711  0.89087665  0.87833006    -0.80100
C1349       C  0.91138063  0.91717490  0.87271697     0.79900
N1350       N  0.93011185  0.92599307  0.84051281    -0.78400
C1351       C  0.96549355  0.93993238  0.84134352     0.82400
N1352       N  0.98146691  0.94492435  0.87413317    -0.78300
C1353       C  0.96403165  0.93838362  0.90635133     0.82400
N1354       N  0.92859276  0.92451749  0.90578777    -0.80100
Zn1355     Zn  0.56675364  0.56636861  0.51506736     1.49700
Zn1356     Zn  0.55912733  0.52014829  0.94947592     1.49400
Zn1357     Zn  0.59683594  0.51090119  0.51434715     1.49100
Zn1358     Zn  0.51057979  0.98063704  0.51488481     1.49500
O1359       O  0.55821917  0.51938308  0.00014010    -1.84400
O1360       O  0.57521749  0.60165379  0.97268502    -0.75100
O1361       O  0.59867215  0.51817548  0.92876042    -0.74900
O1362       O  0.63160744  0.55229446  0.54490505    -0.74400
O1363       O  0.56142001  0.56183116  0.92927957    -0.75100
O1364       O  0.60781577  0.58651832  0.55012301    -0.74700
O1365       O  0.62363309  0.50248501  0.97133452    -0.75300
O1366       O  0.51718261  0.94645561  0.54614446    -0.74700
O1367       O  0.51763412  0.98071359  0.92918007    -0.75400
O1368       O  0.57563324  0.97010109  0.55018629    -0.74800
O1369       O  0.97624920  0.95363922  0.97138046    -0.75300
O1370       O  0.98993430  0.00138300  0.55040625    -0.75200
O1371       O  0.52584172  0.55964544  0.54608977    -0.75000
C1372       C  0.56942870  0.59254287  0.93902747     0.76800
C1373       C  0.62091176  0.50943769  0.93787785     0.77300
C1374       C  0.63076355  0.57834175  0.55904178     0.76300
C1375       C  0.54428511  0.94748820  0.56000835     0.76600
C1376       C  0.98650119  0.95754461  0.93798102     0.77800
C1377       C  0.99910907  0.53274497  0.55991472     0.76800
Zn1378     Zn  0.56147713  0.52305881  0.79970943     1.49700
Zn1379     Zn  0.59915809  0.51424244  0.73405997     1.49400
Zn1380     Zn  0.51377988  0.98519883  0.73461535     1.49100
Zn1381     Zn  0.57014033  0.57094856  0.73481478     1.49500
O1382       O  0.56123755  0.52348575  0.74906799    -1.84400
O1383       O  0.60119188  0.52151827  0.81972879    -0.75100
O1384       O  0.57735832  0.97269229  0.69913716    -0.74900
O1385       O  0.97916634  0.95814746  0.77745420    -0.74400
O1386       O  0.62622617  0.50614609  0.77680533    -0.75100
O1387       O  0.52020314  0.98251434  0.82020266    -0.74700
O1388       O  0.51919618  0.95043825  0.70365873    -0.75300
O1389       O  0.52914044  0.56462186  0.70370627    -0.74700
O1390       O  0.63310397  0.55503308  0.70232727    -0.75400
O1391       O  0.99392879  0.00624021  0.69950914    -0.74800
O1392       O  0.61108315  0.59097017  0.69905845    -0.75300
O1393       O  0.57876406  0.60570640  0.77829798    -0.75200
O1394       O  0.56360957  0.56441605  0.82048291    -0.75000
C1395       C  0.62335084  0.51276845  0.81034804     0.76800
C1396       C  0.54578550  0.95037666  0.68990197     0.77300
C1397       C  0.98899278  0.96026171  0.81074029     0.76300
C1398       C  0.00277095  0.53748574  0.68984421     0.76600
C1399       C  0.63290148  0.58165486  0.68881866     0.77800
C1400       C  0.57217342  0.59555272  0.81171047     0.76800
C1401       C  0.70635744  0.61542982  0.62259069     0.79900
N1402       N  0.68793361  0.60716070  0.59053340    -0.78400
C1403       C  0.65283359  0.59525730  0.59107507     0.82400
N1404       N  0.63616068  0.59061247  0.62367009    -0.78300
C1405       C  0.65390949  0.59750804  0.65577253     0.82400
N1406       N  0.68901542  0.60951892  0.65524812    -0.80100
C1407       C  0.96572956  0.57404728  0.62391177     0.79900
N1408       N  0.97110304  0.56147980  0.59181772    -0.78400
C1409       C  0.98312508  0.53852019  0.59248460     0.82400
N1410       N  0.99036458  0.52895210  0.62519218    -0.78300
C1411       C  0.98625579  0.54217216  0.65718132     0.82400
N1412       N  0.97454659  0.56534929  0.65652494    -0.80100
C1413       C  0.90563625  0.66465101  0.62349904     0.79900
N1414       N  0.92792882  0.70009321  0.62439342    -0.78400
C1415       C  0.91542051  0.72261660  0.62540760     0.82400
N1416       N  0.88004534  0.70933887  0.62609743    -0.78300
C1417       C  0.85736152  0.67404237  0.62561484     0.82400
N1418       N  0.87034609  0.65190828  0.62416232    -0.80100
C1419       C  0.50593982  0.87426282  0.62692213     0.79900
N1420       N  0.51641744  0.89139762  0.59401725    -0.78400
C1421       C  0.53927025  0.92667099  0.59311838     0.82400
N1422       N  0.55088158  0.94464842  0.62502528    -0.78300
C1423       C  0.53983166  0.92814767  0.65784585     0.82400
N1424       N  0.51674150  0.89292141  0.65883746    -0.80100
C1425       C  0.92945785  0.78201704  0.64619457    -0.20600
C1426       C  0.93979381  0.76135676  0.62630250    -0.07200
C1427       C  0.97231904  0.77830282  0.60697823     0.13700
C1428       C  0.49298816  0.81520916  0.60755367    -0.20700
C1429       C  0.48269513  0.83561911  0.62768807    -0.07200
C1430       C  0.95059613  0.81884965  0.64743267     0.13700
C1431       C  0.93795685  0.83965605  0.66884163    -0.24000
H1432       H  0.90475241  0.76924062  0.66120559     0.15000
H1433       H  0.51770303  0.82830475  0.59252136     0.15000
C1434       C  0.98521525  0.75809874  0.58484121    -0.24000
H1435       H  0.91143696  0.82237465  0.68099732     0.05200
H1436       H  0.93631743  0.85887894  0.65041289     0.08400
H1437       H  0.95635858  0.85387250  0.69173172     0.08400
H1438       H  0.96511319  0.74139586  0.56417687     0.08400
H1439       H  0.99078654  0.74145642  0.60331160     0.08400
H1440       H  0.50999074  0.77595321  0.56977604     0.05200
C1441       C  0.91732186  0.58490841  0.60904599    -0.20600
C1442       C  0.95120353  0.59773573  0.62323215    -0.07200
C1443       C  0.97025588  0.63247795  0.63666527     0.13700
C1444       C  0.95465532  0.65345339  0.63613134    -0.20700
C1445       C  0.92020597  0.64054904  0.62282707    -0.07200
C1446       C  0.90132488  0.60558678  0.60893018     0.13700
C1447       C  0.86466782  0.58968136  0.59331010    -0.24000
H1448       H  0.90303335  0.55820811  0.59860398     0.15000
H1449       H  0.96949181  0.68007517  0.64665341     0.15000
C1450       C  0.00738648  0.64782276  0.65068680    -0.24000
H1451       H  0.85521506  0.56300436  0.58184539     0.05200
H1452       H  0.86439598  0.60649778  0.57071056     0.08400
H1453       H  0.84581717  0.58682768  0.61522830     0.08400
H1454       H  0.52432068  0.64644482  0.62872693     0.08400
H1455       H  0.00766136  0.63296617  0.67520298     0.08400
H1456       H  0.51902022  0.67591682  0.65862540     0.05200
C1457       C  0.79796382  0.63067941  0.60242910    -0.20600
C1458       C  0.81876992  0.65960974  0.62525318    -0.07200
C1459       C  0.80224246  0.67355291  0.64737519     0.13700
C1460       C  0.76551987  0.65829911  0.64587338    -0.20700
C1461       C  0.74487258  0.62995904  0.62242662    -0.07200
C1462       C  0.76127741  0.61585037  0.60044496     0.13700
C1463       C  0.74032214  0.58453948  0.57577759    -0.24000
H1464       H  0.81057480  0.61988347  0.58561884     0.15000
H1465       H  0.75280509  0.66889031  0.66284142     0.15000
C1466       C  0.82277970  0.70377878  0.67342405    -0.24000
H1467       H  0.75726871  0.57569272  0.56253778     0.05200
H1468       H  0.72771555  0.59147340  0.55351030     0.08400
H1469       H  0.71979512  0.56217225  0.59207691     0.08400
H1470       H  0.84028637  0.72808401  0.65768268     0.08400
H1471       H  0.83866118  0.69750442  0.69227774     0.08400
H1472       H  0.80517144  0.70928457  0.69049302     0.05200
C1473       C  0.85182354  0.87688689  0.89749305    -0.20600
C1474       C  0.87301312  0.90342372  0.87226373    -0.07200
C1475       C  0.85743269  0.91747490  0.84889572     0.13700
C1476       C  0.82133294  0.90532923  0.85231393    -0.20700
C1477       C  0.80017619  0.87875616  0.87745688    -0.07200
C1478       C  0.81547620  0.86390585  0.89999090     0.13700
C1479       C  0.79399846  0.83519232  0.92746310    -0.24000
H1480       H  0.86381306  0.86610687  0.91524743     0.15000
H1481       H  0.80936273  0.91626893  0.83478424     0.15000
C1482       C  0.87855764  0.94589913  0.82099695    -0.24000
H1483       H  0.81075705  0.82837137  0.94425973     0.05200
H1484       H  0.77448259  0.81091188  0.91298159     0.08400
H1485       H  0.78013773  0.84392113  0.94642952     0.08400
H1486       H  0.88895109  0.93565341  0.79952442     0.08400
H1487       H  0.90067783  0.96900522  0.83476156     0.08400
H1488       H  0.86227328  0.95502173  0.80684238     0.05200
C1489       C  0.70232383  0.95631376  0.89981753    -0.20600
C1490       C  0.67746562  0.95182019  0.87296041    -0.07200
C1491       C  0.66588745  0.92367090  0.84759489     0.13700
C1492       C  0.67941230  0.90095721  0.84990714    -0.20700
C1493       C  0.70446743  0.90571889  0.87644322    -0.07200
C1494       C  0.71614141  0.93375794  0.90176218     0.13700
C1495       C  0.74199771  0.93917559  0.93175443    -0.24000
H1496       H  0.71101099  0.97764891  0.91940247     0.15000
H1497       H  0.67041529  0.87925858  0.83072468     0.15000
C1498       C  0.63830909  0.91630093  0.81889030    -0.24000
H1499       H  0.74677163  0.96122710  0.95022834     0.05200
H1500       H  0.76768841  0.94554339  0.91955545     0.08400
H1501       H  0.73157607  0.91492011  0.94870505     0.08400
H1502       H  0.64862513  0.93808013  0.79854077     0.08400
H1503       H  0.61417653  0.91320958  0.83221093     0.08400
H1504       H  0.63073168  0.89172105  0.80346547     0.05200
C1505       C  0.68084134  0.76223858  0.90421098    -0.20600
C1506       C  0.67735083  0.78296185  0.87727131    -0.07200
C1507       C  0.65076475  0.76684559  0.85040045     0.13700
C1508       C  0.62803670  0.73019046  0.85140274    -0.20700
C1509       C  0.63110269  0.70930887  0.87871876    -0.06600
C1510       C  0.65805259  0.72568836  0.90552260     0.13700
C1511       C  0.66414135  0.70507988  0.93480754    -0.24000
H1512       H  0.70161519  0.77486022  0.92447431     0.15000
H1513       H  0.60768347  0.71774405  0.83070573     0.15000
C1514       C  0.64720432  0.78793735  0.81981859    -0.24000
H1515       H  0.68809540  0.72211328  0.95126567     0.05200
H1516       H  0.66773270  0.68427492  0.92189527     0.08400
H1517       H  0.64155200  0.69308496  0.95422129     0.08400
H1518       H  0.67238477  0.80228906  0.80429839     0.08400
H1519       H  0.64042994  0.80708405  0.83132210     0.08400
H1520       H  0.62612183  0.77084776  0.80017174     0.05200
loop_ 
_geom_bond_atom_site_label_1 
_geom_bond_atom_site_label_2 
_geom_bond_distance 
_geom_bond_site_symmetry_2 
_ccdc_geom_bond_type 
C1            N2   1.370       .  A
C1            N6   1.374       .  A
C1          C179   1.484       .  S
N2            C3   1.354       .  A
C3            N4   1.345       .  A
C3           C42   1.473       .  S
N4            C5   1.347       .  A
C5            N6   1.359       .  A
C5           C70   1.478       .  S
C7          N388   1.374       .  A
C7          N392   1.372       .  A
C7          C160   1.484       .  S
N8            C9   1.359   1_565  A
N8          C387   1.374       .  A
C9           N10   1.347       .  A
C9           C43   1.480       .  S
N10          C11   1.347       .  A
C11          N12   1.356   1_545  A
C11          C65   1.477       .  S
N12         C387   1.372       .  A
C13          N14   1.359       .  A
C13          N18   1.359       .  A
C13         C163   1.477       .  S
N14          C15   1.357       .  A
C15          N16   1.355       .  A
C15         C176   1.472       .  S
N16          C17   1.355       .  A
C17          N18   1.359       .  A
C17         C147   1.475       .  S
C19          N20   1.369       .  A
C19          N24   1.371       .  A
C19         C144   1.477       .  S
N20          C21   1.354       .  A
C21          N22   1.346       .  A
C21          C67   1.472       .  S
N22          C23   1.348       .  A
C23          N24   1.357       .  A
C23          C46   1.474       .  S
Zn25         O34   2.016       .  S
Zn25         O41   2.014       .  S
Zn25        O220   2.083   1_554  S
Zn25        O219   1.983       .  S
Zn26         O31   1.938       .  S
Zn26         O33   1.932       .  S
Zn26        O417   1.922   1_545  S
Zn26         O29   1.843       .  S
Zn27         O32   2.021       .  S
Zn27        O225   2.100   1_554  S
Zn27        O418   2.023   1_545  S
Zn27        O219   1.987       .  S
Zn28         O36   2.022       .  S
Zn28        O989   2.096   1_454  S
Zn28        O800   2.041   1_455  S
Zn28        O599   1.991       .  S
O29        Zn215   1.983       .  S
O29        Zn217   1.986       .  S
O29        Zn598   1.991   1_545  S
O30        Zn215   2.083       .  S
O30          C42   1.274       .  A
O31          C43   1.265       .  A
O32          C44   1.275       .  A
O33          C42   1.264       .  A
O34          C44   1.275       .  A
O35        Zn217   2.100       .  S
O35          C43   1.275       .  A
O36          C45   1.276       .  A
O37        Zn406   1.921       .  S
O37         C806   1.264   1_455  A
O38        Zn407   2.023       .  S
O38          C45   1.276       .  A
O39        Zn978   2.096       .  S
O39          C46   1.276       .  A
O40        Zn788   2.041       .  S
O40         C427   1.277       .  A
O41         C807   1.274   1_455  A
C44          C73   1.459       .  S
C45          C91   1.460       .  S
C46         O797   1.264       .  A
C47          C79   1.463       .  S
C47         O420   1.277       .  A
C47         O801   1.274       .  A
Zn48         O53   1.928       .  S
Zn48         O64   1.931       .  S
Zn48        O437   1.937   1_545  S
Zn48         O52   1.842       .  S
Zn49         O56   2.098       .  S
Zn49         O60   2.015       .  S
Zn49        O434   2.028   1_545  S
Zn49         O52   1.984       .  S
Zn50         O58   2.010       .  S
Zn50        O815   2.077   1_455  S
Zn50        O821   2.018   1_455  S
Zn50        O432   1.980       .  S
Zn51         O59   2.028       .  S
Zn51         O62   2.024       .  S
Zn51         O63   2.099       .  S
Zn51         O52   1.990       .  S
O52        Zn430   1.980   1_545  S
O53          C65   1.264       .  A
O54        Zn429   2.028       .  S
O54          C66   1.276       .  A
O55        Zn810   2.077       .  S
O55          C67   1.274       .  A
O56          C65   1.275       .  A
O57        Zn428   1.937       .  S
O57         C827   1.265   1_455  A
O58          C66   1.273       .  A
O59         C828   1.276       .  A
O60          C69   1.275       .  A
O61        Zn810   2.018       .  S
O61         C448   1.275       .  A
O62          C69   1.276       .  A
O63          C70   1.276       .  A
O64          C70   1.265       .  A
C66          C93   1.459       .  S
C67         O817   1.265       .  A
C68          C81   1.462       .  S
C68         O819   1.276       .  A
C68         O441   1.275       .  A
C69          C75   1.458       .  S
C71          N72   1.362       .  A
C71          N76   1.362       .  A
C71         C131   1.478       .  S
N72          C73   1.357       .  A
C73          N74   1.353       .  A
N74          C75   1.353       .  A
C75          N76   1.356       .  A
C77          N78   1.363       .  A
C77          N82   1.362       .  A
C77         C112   1.475       .  S
N78          C79   1.359       .  A
C79          N80   1.353       .  A
N80          C81   1.354       .  A
C81          N82   1.357       .  A
C83          N84   1.360       .  A
C83          N88   1.358       .  A
C83         C115   1.493       .  S
N84          C85   1.358       .  A
C85          N86   1.358       .  A
C85          C96   1.486       .  S
N86          C87   1.357       .  A
C87          N88   1.359       .  A
C87         C128   1.482       .  S
C89          N90   1.363       .  A
C89          N94   1.363       .  A
C89          C99   1.476   1_455  S
N90          C91   1.358       .  A
C91          N92   1.352       .  A
N92          C93   1.352       .  A
C93          N94   1.358       .  A
C95          C96   1.407       .  A
C95         C100   1.404       .  A
C95         H102   1.084       .  S
C96          C97   1.419       .  A
C97         C858   1.404       .  A
C97         C104   1.508       .  S
C98          C99   1.401       .  A
C98         C857   1.404       .  A
C98         H103   1.084   1_655  S
C99         C860   1.412       .  A
C100        C859   1.412       .  A
C100        C101   1.507       .  S
C101        H105   1.111       .  S
C101        H106   1.110       .  S
C101        H107   1.109       .  S
C104        H108   1.110       .  S
C104        H109   1.110       .  S
C104        H870   1.111       .  S
H110        C864   1.111   1_455  S
C111        C112   1.400       .  A
C111        C116   1.406       .  A
C111        H118   1.084       .  S
C112        C113   1.409       .  A
C113        C114   1.403       .  A
C113        C120   1.507       .  S
C114        C115   1.409       .  A
C114        H119   1.083       .  S
C115        C116   1.423       .  A
C116        C117   1.508       .  S
C117        H121   1.111       .  S
C117        H122   1.110       .  S
C117        H123   1.110       .  S
C120        H125   1.109       .  S
C120        H884   1.110       .  S
C120        H886   1.111       .  S
H124        C880   1.110       .  S
H126        C880   1.111       .  S
C127        C128   1.405       .  A
C127        C132   1.404       .  A
C127        H134   1.084       .  S
C128        C129   1.416       .  A
C129        C130   1.402       .  A
C129        C136   1.508       .  S
C130        C131   1.402       .  A
C130        H135   1.084       .  S
C131        C132   1.414       .  A
C132        C133   1.508       .  S
C133        H137   1.111       .  S
C133        H138   1.109       .  S
C133        H139   1.110       .  S
C136        H140   1.109       .  S
C136        H141   1.110       .  S
C136        H142   1.111       .  S
C143        C144   1.403       .  A
C143        C148   1.402       .  A
C143        H150   1.084       .  S
C144        C145   1.417       .  A
C145        C146   1.401       .  A
C145        C152   1.509       .  S
C146        C147   1.401       .  A
C146        H151   1.084       .  S
C147        C148   1.415       .  A
C148        C149   1.508       .  S
C149        H153   1.111       .  S
C149        H154   1.109       .  S
C149        H155   1.110       .  S
C152        H156   1.110       .  S
C152        H157   1.110       .  S
C152        H158   1.111       .  S
C159        C160   1.406       .  A
C159        C164   1.405       .  A
C159        H166   1.084       .  S
C160        C161   1.418       .  A
C161        C162   1.403       .  A
C161        C168   1.508       .  S
C162        C163   1.401       .  A
C162        H167   1.084       .  S
C163        C164   1.413       .  A
C164        C165   1.507       .  S
C165        H169   1.111       .  S
C165        H170   1.109       .  S
C165        H171   1.110       .  S
C168        H172   1.109       .  S
C168        H173   1.110       .  S
C168        H174   1.111       .  S
C175        C176   1.399       .  A
C175        C180   1.401       .  A
C175        H182   1.085       .  S
C176        C177   1.411       .  A
C177        C178   1.404       .  A
C177        C184   1.507       .  S
C178        C179   1.406       .  A
C178        H183   1.084       .  S
C179        C180   1.420       .  A
C180        C181   1.509       .  S
C181        H185   1.111       .  S
C181        H186   1.110       .  S
C181        H187   1.109       .  S
C184        H188   1.111       .  S
C184        H189   1.109       .  S
C184        H190   1.111       .  S
C191        N192   1.370       .  A
C191        N196   1.374       .  A
C191        C369   1.484       .  S
N192        C193   1.354       .  A
C193        N194   1.345       .  A
C193        C232   1.473       .  S
N194        C195   1.347       .  A
C195        N196   1.359       .  A
C195        C260   1.477       .  S
C197        N578   1.374       .  A
C197        N582   1.372       .  A
C197        C350   1.484       .  S
N198        C577   1.374       .  A
N198        C199   1.359   1_565  A
C199        N200   1.347       .  A
C199        C233   1.480       .  S
N200        C201   1.347       .  A
C201        N202   1.356   1_545  A
C201        C255   1.477       .  S
N202        C577   1.372       .  A
C203        N204   1.359       .  A
C203        N208   1.359       .  A
C203        C353   1.477       .  S
N204        C205   1.357       .  A
C205        N206   1.355       .  A
C205        C366   1.472       .  S
N206        C207   1.355       .  A
C207        N208   1.359       .  A
C207        C337   1.475       .  S
C209        N210   1.369       .  A
C209        N214   1.372       .  A
C209        C334   1.477       .  S
N210        C211   1.354       .  A
C211        N212   1.346       .  A
C211        C257   1.472       .  S
N212        C213   1.348       .  A
C213        N214   1.357       .  A
C213        C236   1.474       .  S
Zn215       O224   2.016       .  S
Zn215       O231   2.014       .  S
Zn216       O221   1.937       .  S
Zn216       O223   1.932       .  S
Zn216       O607   1.921   1_545  S
Zn216       O219   1.843   1_556  S
Zn217       O222   2.021       .  S
Zn217       O608   2.023   1_545  S
Zn218       O226   2.022       .  S
Zn218       O799   2.096   1_455  S
Zn218       O990   2.041   1_455  S
Zn218       O409   1.991       .  S
O219       Zn408   1.991   1_545  S
O220        C232   1.274       .  A
O221        C233   1.265       .  A
O222        C234   1.275       .  A
O223        C232   1.264       .  A
O224        C234   1.275       .  A
O225        C233   1.275       .  A
O226        C235   1.276       .  A
O227       Zn596   1.922       .  S
O227        C996   1.264   1_455  A
O228       Zn597   2.023       .  S
O228        C235   1.276       .  A
O229       Zn788   2.096   1_556  S
O229        C236   1.276       .  A
O230       Zn978   2.041       .  S
O230        C617   1.277       .  A
O231        C997   1.274   1_455  A
C234        C263   1.459       .  S
C235        C281   1.460       .  S
C236        O987   1.264       .  A
C237        C269   1.463       .  S
C237        O610   1.277       .  A
C237        O991   1.274       .  A
Zn238       O243   1.928       .  S
Zn238       O627   1.937   1_545  S
Zn238       O254   1.931       .  S
Zn238       O242   1.842       .  S
Zn239       O624   2.028   1_545  S
Zn239       O246   2.098       .  S
Zn239       O250   2.015       .  S
Zn239       O242   1.984       .  S
Zn240      O1005   2.077   1_455  S
Zn240       O248   2.010       .  S
Zn240      O1011   2.018   1_455  S
Zn240       O622   1.980       .  S
Zn241       O249   2.028       .  S
Zn241       O252   2.024       .  S
Zn241       O253   2.099       .  S
Zn241       O242   1.990       .  S
O242       Zn620   1.980   1_545  S
O243        C255   1.264       .  A
O244       Zn619   2.028       .  S
O244        C256   1.276       .  A
O245      Zn1000   2.077       .  S
O245        C257   1.274       .  A
O246        C255   1.275       .  A
O247       Zn618   1.937       .  S
O247       C1017   1.265   1_455  A
O248        C256   1.273       .  A
O249       C1018   1.276       .  A
O250        C259   1.275       .  A
O251      Zn1000   2.018       .  S
O251        C638   1.275       .  A
O252        C259   1.276       .  A
O253        C260   1.276       .  A
O254        C260   1.265       .  A
C256        C283   1.459       .  S
C257       O1007   1.265       .  A
C258        C271   1.462       .  S
C258       O1009   1.276       .  A
C258        O631   1.275       .  A
C259        C265   1.458       .  S
C261        N262   1.362       .  A
C261        N266   1.362       .  A
C261        C321   1.478       .  S
N262        C263   1.357       .  A
C263        N264   1.353       .  A
N264        C265   1.353       .  A
C265        N266   1.356       .  A
C267        N268   1.363       .  A
C267        N272   1.362       .  A
C267        C302   1.475       .  S
N268        C269   1.359       .  A
C269        N270   1.353       .  A
N270        C271   1.354       .  A
C271        N272   1.357       .  A
C273        N274   1.360       .  A
C273        N278   1.358       .  A
C273        C305   1.493       .  S
N274        C275   1.358       .  A
C275        N276   1.358       .  A
C275        C286   1.486       .  S
N276        C277   1.357       .  A
C277        N278   1.358       .  A
C277        C318   1.482       .  S
C279        N280   1.363       .  A
C279        N284   1.363       .  A
C279        C289   1.476   1_455  S
N280        C281   1.357       .  A
C281        N282   1.352       .  A
N282        C283   1.352       .  A
C283        N284   1.358       .  A
C285        C286   1.407       .  A
C285        C290   1.404       .  A
C285        H292   1.084       .  S
C286        C287   1.419       .  A
C287       C1048   1.404       .  A
C287        C294   1.508       .  S
C288       C1047   1.404       .  A
C288        C289   1.401       .  A
C288        H293   1.084   1_655  S
C289       C1050   1.412       .  A
C290       C1049   1.412       .  A
C290        C291   1.507       .  S
C291        H295   1.111       .  S
C291        H296   1.110       .  S
C291        H297   1.109       .  S
C294        H298   1.110       .  S
C294        H299   1.110       .  S
C294       H1060   1.111       .  S
H300       C1054   1.111   1_455  S
C301        C302   1.400       .  A
C301        C306   1.406       .  A
C301        H308   1.084       .  S
C302        C303   1.409       .  A
C303        C304   1.403       .  A
C303        C310   1.507       .  S
C304        C305   1.409       .  A
C304        H309   1.083       .  S
C305        C306   1.423       .  A
C306        C307   1.508       .  S
C307        H311   1.111       .  S
C307        H312   1.110       .  S
C307        H313   1.110       .  S
C310       H1074   1.110       .  S
C310        H315   1.109       .  S
C310       H1076   1.111       .  S
H314       C1070   1.110       .  S
H316       C1070   1.111       .  S
C317        C318   1.405       .  A
C317        C322   1.404       .  A
C317        H324   1.084       .  S
C318        C319   1.416       .  A
C319        C320   1.402       .  A
C319        C326   1.508       .  S
C320        C321   1.402       .  A
C320        H325   1.084       .  S
C321        C322   1.414       .  A
C322        C323   1.508       .  S
C323        H327   1.111       .  S
C323        H328   1.109       .  S
C323        H329   1.110       .  S
C326        H330   1.109       .  S
C326        H331   1.110       .  S
C326        H332   1.111       .  S
C333        C334   1.403       .  A
C333        C338   1.402       .  A
C333        H340   1.084       .  S
C334        C335   1.417       .  A
C335        C336   1.401       .  A
C335        C342   1.509       .  S
C336        C337   1.401       .  A
C336        H341   1.084       .  S
C337        C338   1.415       .  A
C338        C339   1.508       .  S
C339        H343   1.111       .  S
C339        H344   1.109       .  S
C339        H345   1.110       .  S
C342        H346   1.110       .  S
C342        H347   1.110       .  S
C342        H348   1.111       .  S
C349        C350   1.406       .  A
C349        C354   1.405       .  A
C349        H356   1.084       .  S
C350        C351   1.418       .  A
C351        C352   1.403       .  A
C351        C358   1.508       .  S
C352        C353   1.401       .  A
C352        H357   1.084       .  S
C353        C354   1.413       .  A
C354        C355   1.507       .  S
C355        H359   1.111       .  S
C355        H360   1.109       .  S
C355        H361   1.110       .  S
C358        H362   1.109       .  S
C358        H363   1.110       .  S
C358        H364   1.111       .  S
C365        C366   1.399       .  A
C365        C370   1.401       .  A
C365        H372   1.085       .  S
C366        C367   1.411       .  A
C367        C368   1.404       .  A
C367        C374   1.507       .  S
C368        C369   1.406       .  A
C368        H373   1.084       .  S
C369        C370   1.420       .  A
C370        C371   1.509       .  S
C371        H375   1.111       .  S
C371        H376   1.110       .  S
C371        H377   1.109       .  S
C374        H378   1.111       .  S
C374        H379   1.109       .  S
C374        H380   1.111       .  S
C381        N382   1.370       .  A
C381        N386   1.374       .  A
C381        C559   1.484       .  S
N382        C383   1.354       .  A
C383        N384   1.345       .  A
C383        C422   1.473       .  S
N384        C385   1.347       .  A
C385        N386   1.359       .  A
C385        C450   1.477       .  S
C387        C540   1.484       .  S
N388        C389   1.359       .  A
C389        N390   1.347       .  A
C389        C423   1.480       .  S
N390        C391   1.347       .  A
C391        N392   1.356       .  A
C391        C445   1.477       .  S
C393        N394   1.359       .  A
C393        N398   1.359       .  A
C393        C543   1.477       .  S
N394        C395   1.357       .  A
C395        N396   1.355       .  A
C395        C556   1.472       .  S
N396        C397   1.355       .  A
C397        N398   1.359       .  A
C397        C527   1.475       .  S
C399        N400   1.369       .  A
C399        N404   1.372       .  A
C399        C524   1.477       .  S
N400        C401   1.354       .  A
C401        N402   1.346       .  A
C401        C447   1.472       .  S
N402        C403   1.348       .  A
C403        N404   1.357       .  A
C403        C426   1.474       .  S
Zn405       O600   2.083   1_554  S
Zn405       O414   2.016       .  S
Zn405       O421   2.014       .  S
Zn405       O599   1.983       .  S
Zn406       O411   1.937       .  S
Zn406       O413   1.932       .  S
Zn406       O409   1.843       .  S
Zn407       O412   2.021       .  S
Zn407       O605   2.100   1_554  S
Zn407       O599   1.986       .  S
Zn408       O416   2.022       .  S
Zn408      O1369   2.096   1_454  S
Zn408      O1180   2.041   1_465  S
O409       Zn595   1.983       .  S
O409       Zn597   1.987       .  S
O410       Zn595   2.083       .  S
O410        C422   1.274       .  A
O411        C423   1.265       .  A
O412        C424   1.275       .  A
O413        C422   1.264       .  A
O414        C424   1.275       .  A
O415       Zn597   2.100       .  S
O415        C423   1.275       .  A
O416        C425   1.276       .  A
O417       C1186   1.264   1_455  A
O418        C425   1.276       .  A
O419      Zn1358   2.096       .  S
O419        C426   1.276       .  A
O420      Zn1168   2.041   1_545  S
O421       C1187   1.274   1_455  A
C424        C453   1.459       .  S
C425        C471   1.460       .  S
C426       O1177   1.264       .  A
C427        C459   1.463       .  S
C427       O1181   1.274       .  A
Zn428       O433   1.928       .  S
Zn428       O444   1.931       .  S
Zn428       O432   1.842       .  S
Zn429       O436   2.098       .  S
Zn429       O440   2.015       .  S
Zn429       O432   1.984       .  S
Zn430      O1195   2.077   1_455  S
Zn430       O438   2.010       .  S
Zn430      O1201   2.018   1_465  S
Zn431       O439   2.028       .  S
Zn431       O442   2.023       .  S
Zn431       O443   2.099       .  S
Zn431       O432   1.990       .  S
O433        C445   1.264       .  A
O434        C446   1.276       .  A
O435      Zn1190   2.077       .  S
O435        C447   1.274       .  A
O436        C445   1.275       .  A
O437       C1207   1.265   1_455  A
O438        C446   1.273       .  A
O439       C1208   1.276       .  A
O440        C449   1.275       .  A
O441      Zn1190   2.018   1_545  S
O442        C449   1.276       .  A
O443        C450   1.276       .  A
O444        C450   1.265       .  A
C446        C473   1.459       .  S
C447       O1197   1.265       .  A
C448        C461   1.462       .  S
C448       O1199   1.276       .  A
C449        C455   1.458       .  S
C451        N452   1.362       .  A
C451        N456   1.362       .  A
C451        C511   1.478       .  S
N452        C453   1.357       .  A
C453        N454   1.353       .  A
N454        C455   1.353       .  A
C455        N456   1.356       .  A
C457        N458   1.363       .  A
C457        N462   1.362       .  A
C457        C492   1.475       .  S
N458        C459   1.359       .  A
C459        N460   1.353       .  A
N460        C461   1.354       .  A
C461        N462   1.357       .  A
C463        N464   1.360       .  A
C463        N468   1.358       .  A
C463        C495   1.493       .  S
N464        C465   1.358       .  A
C465        N466   1.358       .  A
C465        C476   1.486       .  S
N466        C467   1.357       .  A
C467        N468   1.358       .  A
C467        C508   1.482       .  S
C469        N470   1.363       .  A
C469        N474   1.363       .  A
C469        C479   1.476   1_455  S
N470        C471   1.357       .  A
C471        N472   1.352       .  A
N472        C473   1.352       .  A
C473        N474   1.358       .  A
C475        C476   1.407       .  A
C475        C480   1.404       .  A
C475        H482   1.084       .  S
C476        C477   1.419       .  A
C477       C1238   1.404       .  A
C477        C484   1.508       .  S
C478       C1237   1.404       .  A
C478        C479   1.401       .  A
C478        H483   1.084   1_655  S
C479       C1240   1.412       .  A
C480       C1239   1.412       .  A
C480        C481   1.507       .  S
C481        H485   1.111       .  S
C481        H486   1.110       .  S
C481        H487   1.109       .  S
C484        H488   1.110       .  S
C484        H489   1.110       .  S
C484       H1250   1.111       .  S
H490       C1244   1.111   1_455  S
C491        C492   1.400       .  A
C491        C496   1.406       .  A
C491        H498   1.084       .  S
C492        C493   1.409       .  A
C493        C494   1.403       .  A
C493        C500   1.507       .  S
C494        C495   1.409       .  A
C494        H499   1.083       .  S
C495        C496   1.423       .  A
C496        C497   1.508       .  S
C497        H501   1.111       .  S
C497        H502   1.110       .  S
C497        H503   1.110       .  S
C500       H1264   1.110       .  S
C500        H505   1.109       .  S
C500       H1266   1.111       .  S
H504       C1260   1.110       .  S
H506       C1260   1.111       .  S
C507        C508   1.405       .  A
C507        C512   1.404       .  A
C507        H514   1.084       .  S
C508        C509   1.416       .  A
C509        C510   1.402       .  A
C509        C516   1.508       .  S
C510        C511   1.402       .  A
C510        H515   1.084       .  S
C511        C512   1.414       .  A
C512        C513   1.508       .  S
C513        H517   1.111       .  S
C513        H518   1.109       .  S
C513        H519   1.110       .  S
C516        H520   1.109       .  S
C516        H521   1.110       .  S
C516        H522   1.111       .  S
C523        C524   1.403       .  A
C523        C528   1.402       .  A
C523        H530   1.084       .  S
C524        C525   1.417       .  A
C525        C526   1.401       .  A
C525        C532   1.509       .  S
C526        C527   1.401       .  A
C526        H531   1.084       .  S
C527        C528   1.415       .  A
C528        C529   1.508       .  S
C529        H533   1.111       .  S
C529        H534   1.109       .  S
C529        H535   1.110       .  S
C532        H536   1.110       .  S
C532        H537   1.110       .  S
C532        H538   1.111       .  S
C539        C540   1.406       .  A
C539        C544   1.405       .  A
C539        H546   1.084       .  S
C540        C541   1.418       .  A
C541        C542   1.403       .  A
C541        C548   1.508       .  S
C542        C543   1.401       .  A
C542        H547   1.084       .  S
C543        C544   1.413       .  A
C544        C545   1.507       .  S
C545        H549   1.111       .  S
C545        H550   1.109       .  S
C545        H551   1.110       .  S
C548        H552   1.109       .  S
C548        H553   1.110       .  S
C548        H554   1.111       .  S
C555        C556   1.399       .  A
C555        C560   1.401       .  A
C555        H562   1.085       .  S
C556        C557   1.411       .  A
C557        C558   1.404       .  A
C557        C564   1.507       .  S
C558        C559   1.406       .  A
C558        H563   1.084       .  S
C559        C560   1.420       .  A
C560        C561   1.509       .  S
C561        H565   1.111       .  S
C561        H566   1.110       .  S
C561        H567   1.109       .  S
C564        H568   1.111       .  S
C564        H569   1.109       .  S
C564        H570   1.111       .  S
C571        N572   1.370       .  A
C571        N576   1.374       .  A
C571        C749   1.484       .  S
N572        C573   1.354       .  A
C573        N574   1.345       .  A
C573        C612   1.473       .  S
N574        C575   1.347       .  A
C575        N576   1.359       .  A
C575        C640   1.478       .  S
C577        C730   1.484       .  S
N578        C579   1.359       .  A
C579        N580   1.347       .  A
C579        C613   1.479       .  S
N580        C581   1.347       .  A
C581        N582   1.356       .  A
C581        C635   1.477       .  S
C583        N584   1.359       .  A
C583        N588   1.359       .  A
C583        C733   1.477       .  S
N584        C585   1.357       .  A
C585        N586   1.355       .  A
C585        C746   1.472       .  S
N586        C587   1.355       .  A
C587        N588   1.359       .  A
C587        C717   1.475       .  S
C589        N590   1.369       .  A
C589        N594   1.371       .  A
C589        C714   1.477       .  S
N590        C591   1.354       .  A
C591        N592   1.346       .  A
C591        C637   1.472       .  S
N592        C593   1.348       .  A
C593        N594   1.357       .  A
C593        C616   1.474       .  S
Zn595       O604   2.016       .  S
Zn595       O611   2.014       .  S
Zn596       O601   1.938       .  S
Zn596       O603   1.932       .  S
Zn596       O599   1.843   1_556  S
Zn597       O602   2.021       .  S
Zn598       O606   2.022       .  S
Zn598      O1179   2.095   1_455  S
Zn598      O1370   2.041   1_465  S
O600        C612   1.274       .  A
O601        C613   1.265       .  A
O602        C614   1.275       .  A
O603        C612   1.264       .  A
O604        C614   1.275       .  A
O605        C613   1.275       .  A
O606        C615   1.276       .  A
O607       C1376   1.264   1_455  A
O608        C615   1.276       .  A
O609      Zn1168   2.095   1_556  S
O609        C616   1.276       .  A
O610      Zn1358   2.041   1_545  S
O611       C1377   1.274   1_455  A
C614        C643   1.459       .  S
C615        C661   1.460       .  S
C616       O1367   1.264       .  A
C617        C649   1.463       .  S
C617       O1371   1.274       .  A
Zn618       O623   1.928       .  S
Zn618       O634   1.931       .  S
Zn618       O622   1.842       .  S
Zn619       O626   2.098       .  S
Zn619       O630   2.015       .  S
Zn619       O622   1.984       .  S
Zn620      O1385   2.077   1_455  S
Zn620       O628   2.010       .  S
Zn620      O1391   2.018   1_465  S
Zn621       O629   2.028       .  S
Zn621       O632   2.024       .  S
Zn621       O633   2.099       .  S
Zn621       O622   1.990       .  S
O623        C635   1.264       .  A
O624        C636   1.276       .  A
O625      Zn1380   2.077       .  S
O625        C637   1.274       .  A
O626        C635   1.275       .  A
O627       C1397   1.265   1_455  A
O628        C636   1.273       .  A
O629       C1398   1.276       .  A
O630        C639   1.275       .  A
O631      Zn1380   2.018   1_545  S
O632        C639   1.276       .  A
O633        C640   1.276       .  A
O634        C640   1.265       .  A
C636        C663   1.459       .  S
C637       O1387   1.265       .  A
C638        C651   1.462       .  S
C638       O1389   1.276       .  A
C639        C645   1.458       .  S
C641        N642   1.362       .  A
C641        N646   1.362       .  A
C641        C701   1.478       .  S
N642        C643   1.357       .  A
C643        N644   1.353       .  A
N644        C645   1.353       .  A
C645        N646   1.356       .  A
C647        N648   1.363       .  A
C647        N652   1.362       .  A
C647        C682   1.475       .  S
N648        C649   1.359       .  A
C649        N650   1.353       .  A
N650        C651   1.354       .  A
C651        N652   1.357       .  A
C653        N654   1.360       .  A
C653        N658   1.358       .  A
C653        C685   1.493       .  S
N654        C655   1.358       .  A
C655        N656   1.358       .  A
C655        C666   1.486       .  S
N656        C657   1.357       .  A
C657        N658   1.359       .  A
C657        C698   1.482       .  S
C659        N660   1.363       .  A
C659        N664   1.363       .  A
C659        C669   1.476   1_455  S
N660        C661   1.357       .  A
C661        N662   1.352       .  A
N662        C663   1.352       .  A
C663        N664   1.358       .  A
C665        C666   1.407       .  A
C665        C670   1.404       .  A
C665        H672   1.084       .  S
C666        C667   1.419       .  A
C667       C1428   1.404       .  A
C667        C674   1.508       .  S
C668       C1427   1.404       .  A
C668        C669   1.401       .  A
C668        H673   1.084   1_655  S
C669       C1430   1.412       .  A
C670       C1429   1.412       .  A
C670        C671   1.507       .  S
C671        H675   1.111       .  S
C671        H676   1.110       .  S
C671        H677   1.109       .  S
C674        H678   1.110       .  S
C674        H679   1.110       .  S
C674       H1440   1.111       .  S
H680       C1434   1.111   1_455  S
C681        C682   1.400       .  A
C681        C686   1.406       .  A
C681        H688   1.084       .  S
C682        C683   1.409       .  A
C683        C684   1.403       .  A
C683        C690   1.507       .  S
C684        C685   1.409       .  A
C684        H689   1.083       .  S
C685        C686   1.423       .  A
C686        C687   1.508       .  S
C687        H691   1.111       .  S
C687        H692   1.110       .  S
C687        H693   1.110       .  S
C690       H1454   1.110       .  S
C690        H695   1.109       .  S
C690       H1456   1.111       .  S
H694       C1450   1.110       .  S
H696       C1450   1.111       .  S
C697        C698   1.405       .  A
C697        C702   1.404       .  A
C697        H704   1.084       .  S
C698        C699   1.416       .  A
C699        C700   1.402       .  A
C699        C706   1.508       .  S
C700        C701   1.402       .  A
C700        H705   1.084       .  S
C701        C702   1.414       .  A
C702        C703   1.508       .  S
C703        H707   1.111       .  S
C703        H708   1.109       .  S
C703        H709   1.110       .  S
C706        H710   1.109       .  S
C706        H711   1.110       .  S
C706        H712   1.111       .  S
C713        C714   1.403       .  A
C713        C718   1.402       .  A
C713        H720   1.084       .  S
C714        C715   1.417       .  A
C715        C716   1.401       .  A
C715        C722   1.509       .  S
C716        C717   1.401       .  A
C716        H721   1.084       .  S
C717        C718   1.415       .  A
C718        C719   1.508       .  S
C719        H723   1.111       .  S
C719        H724   1.109       .  S
C719        H725   1.110       .  S
C722        H726   1.110       .  S
C722        H727   1.110       .  S
C722        H728   1.111       .  S
C729        C730   1.406       .  A
C729        C734   1.405       .  A
C729        H736   1.084       .  S
C730        C731   1.418       .  A
C731        C732   1.403       .  A
C731        C738   1.508       .  S
C732        C733   1.401       .  A
C732        H737   1.084       .  S
C733        C734   1.413       .  A
C734        C735   1.507       .  S
C735        H739   1.111       .  S
C735        H740   1.109       .  S
C735        H741   1.110       .  S
C738        H742   1.109       .  S
C738        H743   1.110       .  S
C738        H744   1.111       .  S
C745        C746   1.399       .  A
C745        C750   1.401       .  A
C745        H752   1.085       .  S
C746        C747   1.411       .  A
C747        C748   1.404       .  A
C747        C754   1.507       .  S
C748        C749   1.406       .  A
C748        H753   1.084       .  S
C749        C750   1.420       .  A
C750        C751   1.509       .  S
C751        H755   1.111       .  S
C751        H756   1.110       .  S
C751        H757   1.109       .  S
C754        H758   1.111       .  S
C754        H759   1.109       .  S
C754        H760   1.111       .  S
C761        N762   1.370       .  A
C761        N766   1.374       .  A
C761        C939   1.484       .  S
N762        C763   1.354       .  A
C763        N764   1.345       .  A
C763        C802   1.473       .  S
N764        C765   1.347       .  A
C765        N766   1.359       .  A
C765        C830   1.477       .  S
C767       N1148   1.374       .  A
C767       N1152   1.372       .  A
C767        C920   1.484       .  S
N768       C1147   1.374       .  A
N768        C769   1.359   1_565  A
C769        N770   1.347       .  A
C769        C803   1.480       .  S
N770        C771   1.347       .  A
C771        N772   1.356   1_545  A
C771        C825   1.477       .  S
N772       C1147   1.372       .  A
C773        N774   1.359       .  A
C773        N778   1.359       .  A
C773        C923   1.477       .  S
N774        C775   1.357       .  A
C775        N776   1.355       .  A
C775        C936   1.472       .  S
N776        C777   1.355       .  A
C777        N778   1.359       .  A
C777        C907   1.475       .  S
C779        N780   1.369       .  A
C779        N784   1.372       .  A
C779        C904   1.477       .  S
N780        C781   1.354       .  A
C781        N782   1.346       .  A
C781        C827   1.472       .  S
N782        C783   1.348       .  A
C783        N784   1.357       .  A
C783        C806   1.474       .  S
Zn785       O980   2.083   1_554  S
Zn785       O794   2.016       .  S
Zn785       O801   2.014       .  S
Zn785       O979   1.983       .  S
Zn786       O791   1.937       .  S
Zn786       O793   1.932       .  S
Zn786      O1177   1.921   1_545  S
Zn786       O789   1.843       .  S
Zn787       O792   2.021       .  S
Zn787       O985   2.100   1_554  S
Zn787      O1178   2.023   1_545  S
Zn787       O979   1.986       .  S
Zn788       O796   2.022       .  S
Zn788      O1359   1.991       .  S
O789       Zn975   1.983       .  S
O789       Zn977   1.987       .  S
O789      Zn1358   1.991   1_545  S
O790       Zn975   2.083       .  S
O790        C802   1.274       .  A
O791        C803   1.265       .  A
O792        C804   1.275       .  A
O793        C802   1.264       .  A
O794        C804   1.275       .  A
O795       Zn977   2.100       .  S
O795        C803   1.275       .  A
O796        C805   1.276       .  A
O797      Zn1166   1.922       .  S
O798      Zn1167   2.023       .  S
O798        C805   1.276       .  A
O799        C806   1.276       .  A
O800       C1187   1.277       .  A
C804        C833   1.459       .  S
C805        C851   1.460       .  S
C807        C839   1.463       .  S
C807       O1180   1.277       .  A
Zn808       O813   1.928       .  S
Zn808      O1197   1.937   1_545  S
Zn808       O824   1.931       .  S
Zn808       O812   1.842       .  S
Zn809      O1194   2.028   1_545  S
Zn809       O816   2.098       .  S
Zn809       O820   2.015       .  S
Zn809       O812   1.984       .  S
Zn810       O818   2.010       .  S
Zn810      O1192   1.980       .  S
Zn811       O819   2.028       .  S
Zn811       O822   2.024       .  S
Zn811       O823   2.099       .  S
Zn811       O812   1.990       .  S
O812      Zn1190   1.980   1_545  S
O813        C825   1.264       .  A
O814      Zn1189   2.028       .  S
O814        C826   1.276       .  A
O815        C827   1.274       .  A
O816        C825   1.275       .  A
O817      Zn1188   1.937       .  S
O818        C826   1.273       .  A
O820        C829   1.275       .  A
O821       C1208   1.275   1_655  A
O822        C829   1.276       .  A
O823        C830   1.276       .  A
O824        C830   1.265       .  A
C826        C853   1.459       .  S
C828        C841   1.462   1_455  S
C828       O1201   1.275   1_455  A
C829        C835   1.458       .  S
C831        N832   1.362       .  A
C831        N836   1.362       .  A
C831        C891   1.478       .  S
N832        C833   1.357       .  A
C833        N834   1.353       .  A
N834        C835   1.353       .  A
C835        N836   1.356       .  A
C837        N838   1.363       .  A
C837        N842   1.362       .  A
C837        C872   1.475       .  S
N838        C839   1.359       .  A
C839        N840   1.353       .  A
N840        C841   1.354       .  A
C841        N842   1.357       .  A
C843        N844   1.360       .  A
C843        N848   1.358       .  A
C843        C875   1.493       .  S
N844        C845   1.358       .  A
C845        N846   1.358       .  A
C845        C856   1.486       .  S
N846        C847   1.357       .  A
C847        N848   1.358       .  A
C847        C888   1.482       .  S
C849        N850   1.363       .  A
C849        N854   1.363       .  A
C849        C859   1.476       .  S
N850        C851   1.357       .  A
C851        N852   1.352       .  A
N852        C853   1.352       .  A
C853        N854   1.358       .  A
C855        C856   1.407       .  A
C855        C860   1.404       .  A
C855        H862   1.084       .  S
C856        C857   1.419       .  A
C857        C864   1.508       .  S
C858        C859   1.401       .  A
C858        H863   1.084       .  S
C860        C861   1.507       .  S
C861        H865   1.111       .  S
C861        H866   1.110       .  S
C861        H867   1.109       .  S
C864        H868   1.110       .  S
C864        H869   1.110       .  S
C871        C872   1.400       .  A
C871        C876   1.406       .  A
C871        H878   1.084       .  S
C872        C873   1.409       .  A
C873        C874   1.403       .  A
C873        C880   1.507   1_655  S
C874        C875   1.409       .  A
C874        H879   1.083       .  S
C875        C876   1.423       .  A
C876        C877   1.508       .  S
C877        H881   1.111       .  S
C877        H882   1.110       .  S
C877        H883   1.110       .  S
C880        H885   1.109       .  S
C887        C888   1.405       .  A
C887        C892   1.404       .  A
C887        H894   1.084       .  S
C888        C889   1.416       .  A
C889        C890   1.402       .  A
C889        C896   1.508       .  S
C890        C891   1.402       .  A
C890        H895   1.084       .  S
C891        C892   1.414       .  A
C892        C893   1.508       .  S
C893        H897   1.111       .  S
C893        H898   1.109       .  S
C893        H899   1.110       .  S
C896        H900   1.109       .  S
C896        H901   1.110       .  S
C896        H902   1.111       .  S
C903        C904   1.403       .  A
C903        C908   1.402       .  A
C903        H910   1.084       .  S
C904        C905   1.417       .  A
C905        C906   1.401       .  A
C905        C912   1.509       .  S
C906        C907   1.401       .  A
C906        H911   1.084       .  S
C907        C908   1.415       .  A
C908        C909   1.508       .  S
C909        H913   1.111       .  S
C909        H914   1.109       .  S
C909        H915   1.110       .  S
C912        H916   1.110       .  S
C912        H917   1.110       .  S
C912        H918   1.111       .  S
C919        C920   1.406       .  A
C919        C924   1.405       .  A
C919        H926   1.084       .  S
C920        C921   1.418       .  A
C921        C922   1.403       .  A
C921        C928   1.508       .  S
C922        C923   1.401       .  A
C922        H927   1.084       .  S
C923        C924   1.413       .  A
C924        C925   1.507       .  S
C925        H929   1.111       .  S
C925        H930   1.109       .  S
C925        H931   1.110       .  S
C928        H932   1.109       .  S
C928        H933   1.110       .  S
C928        H934   1.111       .  S
C935        C936   1.399       .  A
C935        C940   1.401       .  A
C935        H942   1.085       .  S
C936        C937   1.411       .  A
C937        C938   1.404       .  A
C937        C944   1.507       .  S
C938        C939   1.406       .  A
C938        H943   1.084       .  S
C939        C940   1.420       .  A
C940        C941   1.509       .  S
C941        H945   1.111       .  S
C941        H946   1.110       .  S
C941        H947   1.109       .  S
C944        H948   1.111       .  S
C944        H949   1.109       .  S
C944        H950   1.111       .  S
C951        N952   1.370       .  A
C951        N956   1.374       .  A
C951       C1129   1.484       .  S
N952        C953   1.354       .  A
C953        N954   1.345       .  A
C953        C992   1.473       .  S
N954        C955   1.347       .  A
C955        N956   1.359       .  A
C955       C1020   1.478       .  S
C957       N1338   1.374       .  A
C957       N1342   1.372       .  A
C957       C1110   1.484       .  S
N958       C1337   1.374       .  A
N958        C959   1.359   1_565  A
C959        N960   1.347       .  A
C959        C993   1.480       .  S
N960        C961   1.347       .  A
C961        N962   1.356   1_545  A
C961       C1015   1.477       .  S
N962       C1337   1.372       .  A
C963        N964   1.359       .  A
C963        N968   1.359       .  A
C963       C1113   1.477       .  S
N964        C965   1.357       .  A
C965        N966   1.355       .  A
C965       C1126   1.472       .  S
N966        C967   1.355       .  A
C967        N968   1.359       .  A
C967       C1097   1.475       .  S
C969        N970   1.369       .  A
C969        N974   1.371       .  A
C969       C1094   1.477       .  S
N970        C971   1.354       .  A
C971        N972   1.346       .  A
C971       C1017   1.472       .  S
N972        C973   1.348       .  A
C973        N974   1.357       .  A
C973        C996   1.474       .  S
Zn975       O984   2.016       .  S
Zn975       O991   2.014       .  S
Zn976       O981   1.938       .  S
Zn976       O983   1.932       .  S
Zn976      O1367   1.922   1_545  S
Zn976       O979   1.843   1_556  S
Zn977       O982   2.021       .  S
Zn977      O1368   2.023   1_545  S
Zn978       O986   2.022       .  S
Zn978      O1169   1.991       .  S
O979      Zn1168   1.991   1_545  S
O980        C992   1.274       .  A
O981        C993   1.265       .  A
O982        C994   1.275       .  A
O983        C992   1.264       .  A
O984        C994   1.275       .  A
O985        C993   1.275       .  A
O986        C995   1.276       .  A
O987      Zn1356   1.921       .  S
O988      Zn1357   2.023       .  S
O988        C995   1.276       .  A
O989        C996   1.276       .  A
O990       C1377   1.277       .  A
C994       C1023   1.459       .  S
C995       C1041   1.460       .  S
C997       C1029   1.463       .  S
C997       O1370   1.277       .  A
Zn998      O1003   1.928       .  S
Zn998      O1387   1.937   1_545  S
Zn998      O1014   1.931       .  S
Zn998      O1002   1.842       .  S
Zn999      O1384   2.028   1_545  S
Zn999      O1006   2.098       .  S
Zn999      O1010   2.015       .  S
Zn999      O1002   1.984       .  S
Zn1000     O1008   2.010       .  S
Zn1000     O1382   1.980       .  S
Zn1001     O1009   2.028       .  S
Zn1001     O1012   2.024       .  S
Zn1001     O1013   2.099       .  S
Zn1001     O1002   1.990       .  S
O1002     Zn1380   1.980   1_545  S
O1003      C1015   1.264       .  A
O1004     Zn1379   2.028       .  S
O1004      C1016   1.276       .  A
O1005      C1017   1.274       .  A
O1006      C1015   1.275       .  A
O1007     Zn1378   1.937       .  S
O1008      C1016   1.273       .  A
O1010      C1019   1.275       .  A
O1011      C1398   1.275   1_655  A
O1012      C1019   1.276       .  A
O1013      C1020   1.276       .  A
O1014      C1020   1.265       .  A
C1016      C1043   1.459       .  S
C1018      C1031   1.462   1_455  S
C1018      O1391   1.275   1_455  A
C1019      C1025   1.458       .  S
C1021      N1022   1.362       .  A
C1021      N1026   1.362       .  A
C1021      C1081   1.478       .  S
N1022      C1023   1.357       .  A
C1023      N1024   1.353       .  A
N1024      C1025   1.353       .  A
C1025      N1026   1.356       .  A
C1027      N1028   1.363       .  A
C1027      N1032   1.362       .  A
C1027      C1062   1.475       .  S
N1028      C1029   1.359       .  A
C1029      N1030   1.353       .  A
N1030      C1031   1.354       .  A
C1031      N1032   1.357       .  A
C1033      N1034   1.360       .  A
C1033      N1038   1.358       .  A
C1033      C1065   1.493       .  S
N1034      C1035   1.358       .  A
C1035      N1036   1.358       .  A
C1035      C1046   1.486       .  S
N1036      C1037   1.357       .  A
C1037      N1038   1.359       .  A
C1037      C1078   1.482       .  S
C1039      N1040   1.363       .  A
C1039      N1044   1.363       .  A
C1039      C1049   1.476       .  S
N1040      C1041   1.358       .  A
C1041      N1042   1.352       .  A
N1042      C1043   1.352       .  A
C1043      N1044   1.358       .  A
C1045      C1046   1.407       .  A
C1045      C1050   1.404       .  A
C1045      H1052   1.084       .  S
C1046      C1047   1.419       .  A
C1047      C1054   1.508       .  S
C1048      C1049   1.401       .  A
C1048      H1053   1.084       .  S
C1050      C1051   1.507       .  S
C1051      H1055   1.111       .  S
C1051      H1056   1.110       .  S
C1051      H1057   1.109       .  S
C1054      H1058   1.110       .  S
C1054      H1059   1.110       .  S
C1061      C1062   1.400       .  A
C1061      C1066   1.406       .  A
C1061      H1068   1.084       .  S
C1062      C1063   1.409       .  A
C1063      C1064   1.403       .  A
C1063      C1070   1.507   1_655  S
C1064      C1065   1.409       .  A
C1064      H1069   1.083       .  S
C1065      C1066   1.423       .  A
C1066      C1067   1.508       .  S
C1067      H1071   1.111       .  S
C1067      H1072   1.110       .  S
C1067      H1073   1.110       .  S
C1070      H1075   1.109       .  S
C1077      C1078   1.405       .  A
C1077      C1082   1.404       .  A
C1077      H1084   1.084       .  S
C1078      C1079   1.416       .  A
C1079      C1080   1.402       .  A
C1079      C1086   1.508       .  S
C1080      C1081   1.402       .  A
C1080      H1085   1.084       .  S
C1081      C1082   1.414       .  A
C1082      C1083   1.508       .  S
C1083      H1087   1.111       .  S
C1083      H1088   1.109       .  S
C1083      H1089   1.110       .  S
C1086      H1090   1.109       .  S
C1086      H1091   1.110       .  S
C1086      H1092   1.111       .  S
C1093      C1094   1.403       .  A
C1093      C1098   1.402       .  A
C1093      H1100   1.084       .  S
C1094      C1095   1.417       .  A
C1095      C1096   1.401       .  A
C1095      C1102   1.509       .  S
C1096      C1097   1.401       .  A
C1096      H1101   1.084       .  S
C1097      C1098   1.415       .  A
C1098      C1099   1.508       .  S
C1099      H1103   1.111       .  S
C1099      H1104   1.109       .  S
C1099      H1105   1.110       .  S
C1102      H1106   1.110       .  S
C1102      H1107   1.110       .  S
C1102      H1108   1.111       .  S
C1109      C1110   1.406       .  A
C1109      C1114   1.405       .  A
C1109      H1116   1.084       .  S
C1110      C1111   1.418       .  A
C1111      C1112   1.403       .  A
C1111      C1118   1.508       .  S
C1112      C1113   1.401       .  A
C1112      H1117   1.084       .  S
C1113      C1114   1.413       .  A
C1114      C1115   1.507       .  S
C1115      H1119   1.111       .  S
C1115      H1120   1.109       .  S
C1115      H1121   1.110       .  S
C1118      H1122   1.109       .  S
C1118      H1123   1.110       .  S
C1118      H1124   1.111       .  S
C1125      C1126   1.399       .  A
C1125      C1130   1.401       .  A
C1125      H1132   1.085       .  S
C1126      C1127   1.411       .  A
C1127      C1128   1.404       .  A
C1127      C1134   1.507       .  S
C1128      C1129   1.406       .  A
C1128      H1133   1.084       .  S
C1129      C1130   1.420       .  A
C1130      C1131   1.509       .  S
C1131      H1135   1.111       .  S
C1131      H1136   1.110       .  S
C1131      H1137   1.109       .  S
C1134      H1138   1.111       .  S
C1134      H1139   1.109       .  S
C1134      H1140   1.111       .  S
C1141      N1142   1.370       .  A
C1141      N1146   1.374       .  A
C1141      C1319   1.484       .  S
N1142      C1143   1.354       .  A
C1143      N1144   1.345       .  A
C1143      C1182   1.473       .  S
N1144      C1145   1.347       .  A
C1145      N1146   1.359       .  A
C1145      C1210   1.478       .  S
C1147      C1300   1.484       .  S
N1148      C1149   1.359       .  A
C1149      N1150   1.347       .  A
C1149      C1183   1.480       .  S
N1150      C1151   1.347       .  A
C1151      N1152   1.356       .  A
C1151      C1205   1.477       .  S
C1153      N1154   1.359       .  A
C1153      N1158   1.359       .  A
C1153      C1303   1.477       .  S
N1154      C1155   1.357       .  A
C1155      N1156   1.355       .  A
C1155      C1316   1.472       .  S
N1156      C1157   1.355       .  A
C1157      N1158   1.359       .  A
C1157      C1287   1.475       .  S
C1159      N1160   1.369       .  A
C1159      N1164   1.371       .  A
C1159      C1284   1.477       .  S
N1160      C1161   1.354       .  A
C1161      N1162   1.346       .  A
C1161      C1207   1.472       .  S
N1162      C1163   1.348       .  A
C1163      N1164   1.357       .  A
C1163      C1186   1.474       .  S
Zn1165     O1360   2.083   1_554  S
Zn1165     O1174   2.016       .  S
Zn1165     O1181   2.014       .  S
Zn1165     O1359   1.983       .  S
Zn1166     O1171   1.938       .  S
Zn1166     O1173   1.932       .  S
Zn1166     O1169   1.843       .  S
Zn1167     O1172   2.021       .  S
Zn1167     O1365   2.100   1_554  S
Zn1167     O1359   1.987       .  S
Zn1168     O1176   2.022       .  S
O1169     Zn1355   1.983       .  S
O1169     Zn1357   1.987       .  S
O1170     Zn1355   2.083       .  S
O1170      C1182   1.274       .  A
O1171      C1183   1.265       .  A
O1172      C1184   1.275       .  A
O1173      C1182   1.264       .  A
O1174      C1184   1.275       .  A
O1175     Zn1357   2.100       .  S
O1175      C1183   1.275       .  A
O1176      C1185   1.276       .  A
O1178      C1185   1.276       .  A
O1179      C1186   1.276       .  A
C1184      C1213   1.459       .  S
C1185      C1231   1.460       .  S
C1187      C1219   1.463       .  S
Zn1188     O1193   1.928       .  S
Zn1188     O1204   1.931       .  S
Zn1188     O1192   1.842       .  S
Zn1189     O1196   2.098       .  S
Zn1189     O1200   2.015       .  S
Zn1189     O1192   1.984       .  S
Zn1190     O1198   2.010       .  S
Zn1191     O1199   2.028       .  S
Zn1191     O1202   2.024       .  S
Zn1191     O1203   2.099       .  S
Zn1191     O1192   1.990       .  S
O1193      C1205   1.264       .  A
O1194      C1206   1.276       .  A
O1195      C1207   1.274       .  A
O1196      C1205   1.275       .  A
O1198      C1206   1.273       .  A
O1200      C1209   1.275       .  A
O1202      C1209   1.276       .  A
O1203      C1210   1.276       .  A
O1204      C1210   1.265       .  A
C1206      C1233   1.459       .  S
C1208      C1221   1.462   1_455  S
C1209      C1215   1.458       .  S
C1211      N1212   1.362       .  A
C1211      N1216   1.362       .  A
C1211      C1271   1.478       .  S
N1212      C1213   1.357       .  A
C1213      N1214   1.353       .  A
N1214      C1215   1.353       .  A
C1215      N1216   1.356       .  A
C1217      N1218   1.363       .  A
C1217      N1222   1.362       .  A
C1217      C1252   1.475       .  S
N1218      C1219   1.359       .  A
C1219      N1220   1.353       .  A
N1220      C1221   1.354       .  A
C1221      N1222   1.357       .  A
C1223      N1224   1.360       .  A
C1223      N1228   1.358       .  A
C1223      C1255   1.493       .  S
N1224      C1225   1.358       .  A
C1225      N1226   1.358       .  A
C1225      C1236   1.486       .  S
N1226      C1227   1.357       .  A
C1227      N1228   1.359       .  A
C1227      C1268   1.482       .  S
C1229      N1230   1.363       .  A
C1229      N1234   1.363       .  A
C1229      C1239   1.476       .  S
N1230      C1231   1.357       .  A
C1231      N1232   1.352       .  A
N1232      C1233   1.352       .  A
C1233      N1234   1.358       .  A
C1235      C1236   1.407       .  A
C1235      C1240   1.404       .  A
C1235      H1242   1.084       .  S
C1236      C1237   1.419       .  A
C1237      C1244   1.508       .  S
C1238      C1239   1.401       .  A
C1238      H1243   1.084       .  S
C1240      C1241   1.507       .  S
C1241      H1245   1.111       .  S
C1241      H1246   1.110       .  S
C1241      H1247   1.109       .  S
C1244      H1248   1.110       .  S
C1244      H1249   1.110       .  S
C1251      C1252   1.400       .  A
C1251      C1256   1.406       .  A
C1251      H1258   1.084       .  S
C1252      C1253   1.409       .  A
C1253      C1254   1.403       .  A
C1253      C1260   1.507   1_655  S
C1254      C1255   1.409       .  A
C1254      H1259   1.083       .  S
C1255      C1256   1.423       .  A
C1256      C1257   1.508       .  S
C1257      H1261   1.111       .  S
C1257      H1262   1.110       .  S
C1257      H1263   1.110       .  S
C1260      H1265   1.109       .  S
C1267      C1268   1.405       .  A
C1267      C1272   1.404       .  A
C1267      H1274   1.084       .  S
C1268      C1269   1.416       .  A
C1269      C1270   1.402       .  A
C1269      C1276   1.508       .  S
C1270      C1271   1.402       .  A
C1270      H1275   1.084       .  S
C1271      C1272   1.414       .  A
C1272      C1273   1.508       .  S
C1273      H1277   1.111       .  S
C1273      H1278   1.109       .  S
C1273      H1279   1.110       .  S
C1276      H1280   1.109       .  S
C1276      H1281   1.110       .  S
C1276      H1282   1.111       .  S
C1283      C1284   1.403       .  A
C1283      C1288   1.402       .  A
C1283      H1290   1.084       .  S
C1284      C1285   1.417       .  A
C1285      C1286   1.401       .  A
C1285      C1292   1.509       .  S
C1286      C1287   1.401       .  A
C1286      H1291   1.084       .  S
C1287      C1288   1.415       .  A
C1288      C1289   1.508       .  S
C1289      H1293   1.111       .  S
C1289      H1294   1.109       .  S
C1289      H1295   1.110       .  S
C1292      H1296   1.110       .  S
C1292      H1297   1.110       .  S
C1292      H1298   1.111       .  S
C1299      C1300   1.406       .  A
C1299      C1304   1.405       .  A
C1299      H1306   1.084       .  S
C1300      C1301   1.418       .  A
C1301      C1302   1.403       .  A
C1301      C1308   1.508       .  S
C1302      C1303   1.401       .  A
C1302      H1307   1.084       .  S
C1303      C1304   1.413       .  A
C1304      C1305   1.507       .  S
C1305      H1309   1.111       .  S
C1305      H1310   1.109       .  S
C1305      H1311   1.110       .  S
C1308      H1312   1.109       .  S
C1308      H1313   1.110       .  S
C1308      H1314   1.111       .  S
C1315      C1316   1.399       .  A
C1315      C1320   1.401       .  A
C1315      H1322   1.085       .  S
C1316      C1317   1.411       .  A
C1317      C1318   1.404       .  A
C1317      C1324   1.507       .  S
C1318      C1319   1.406       .  A
C1318      H1323   1.084       .  S
C1319      C1320   1.420       .  A
C1320      C1321   1.509       .  S
C1321      H1325   1.111       .  S
C1321      H1326   1.110       .  S
C1321      H1327   1.109       .  S
C1324      H1328   1.111       .  S
C1324      H1329   1.109       .  S
C1324      H1330   1.111       .  S
C1331      N1332   1.370       .  A
C1331      N1336   1.374       .  A
C1331      C1509   1.484       .  S
N1332      C1333   1.354       .  A
C1333      N1334   1.345       .  A
C1333      C1372   1.473       .  S
N1334      C1335   1.347       .  A
C1335      N1336   1.359       .  A
C1335      C1400   1.477       .  S
C1337      C1490   1.484       .  S
N1338      C1339   1.359       .  A
C1339      N1340   1.347       .  A
C1339      C1373   1.480       .  S
N1340      C1341   1.347       .  A
C1341      N1342   1.356       .  A
C1341      C1395   1.477       .  S
C1343      N1344   1.359       .  A
C1343      N1348   1.359       .  A
C1343      C1493   1.477       .  S
N1344      C1345   1.357       .  A
C1345      N1346   1.355       .  A
C1345      C1506   1.472       .  S
N1346      C1347   1.355       .  A
C1347      N1348   1.359       .  A
C1347      C1477   1.475       .  S
C1349      N1350   1.369       .  A
C1349      N1354   1.372       .  A
C1349      C1474   1.477       .  S
N1350      C1351   1.354       .  A
C1351      N1352   1.346       .  A
C1351      C1397   1.472       .  S
N1352      C1353   1.348       .  A
C1353      N1354   1.357       .  A
C1353      C1376   1.474       .  S
Zn1355     O1364   2.016       .  S
Zn1355     O1371   2.014       .  S
Zn1356     O1361   1.937       .  S
Zn1356     O1363   1.932       .  S
Zn1356     O1359   1.843   1_556  S
Zn1357     O1362   2.021       .  S
Zn1358     O1366   2.022       .  S
O1360      C1372   1.274       .  A
O1361      C1373   1.265       .  A
O1362      C1374   1.275       .  A
O1363      C1372   1.264       .  A
O1364      C1374   1.275       .  A
O1365      C1373   1.275       .  A
O1366      C1375   1.276       .  A
O1368      C1375   1.276       .  A
O1369      C1376   1.276       .  A
C1374      C1403   1.459       .  S
C1375      C1421   1.460       .  S
C1377      C1409   1.463       .  S
Zn1378     O1383   1.928       .  S
Zn1378     O1394   1.931       .  S
Zn1378     O1382   1.842       .  S
Zn1379     O1386   2.098       .  S
Zn1379     O1390   2.015       .  S
Zn1379     O1382   1.984       .  S
Zn1380     O1388   2.010       .  S
Zn1381     O1389   2.028       .  S
Zn1381     O1392   2.023       .  S
Zn1381     O1393   2.099       .  S
Zn1381     O1382   1.990       .  S
O1383      C1395   1.264       .  A
O1384      C1396   1.276       .  A
O1385      C1397   1.274       .  A
O1386      C1395   1.275       .  A
O1388      C1396   1.273       .  A
O1390      C1399   1.275       .  A
O1392      C1399   1.276       .  A
O1393      C1400   1.276       .  A
O1394      C1400   1.265       .  A
C1396      C1423   1.459       .  S
C1398      C1411   1.462   1_455  S
C1399      C1405   1.458       .  S
C1401      N1402   1.362       .  A
C1401      N1406   1.362       .  A
C1401      C1461   1.478       .  S
N1402      C1403   1.357       .  A
C1403      N1404   1.353       .  A
N1404      C1405   1.353       .  A
C1405      N1406   1.356       .  A
C1407      N1408   1.363       .  A
C1407      N1412   1.362       .  A
C1407      C1442   1.475       .  S
N1408      C1409   1.359       .  A
C1409      N1410   1.353       .  A
N1410      C1411   1.354       .  A
C1411      N1412   1.357       .  A
C1413      N1414   1.360       .  A
C1413      N1418   1.358       .  A
C1413      C1445   1.493       .  S
N1414      C1415   1.358       .  A
C1415      N1416   1.358       .  A
C1415      C1426   1.486       .  S
N1416      C1417   1.357       .  A
C1417      N1418   1.358       .  A
C1417      C1458   1.482       .  S
C1419      N1420   1.363       .  A
C1419      N1424   1.363       .  A
C1419      C1429   1.476       .  S
N1420      C1421   1.357       .  A
C1421      N1422   1.352       .  A
N1422      C1423   1.352       .  A
C1423      N1424   1.358       .  A
C1425      C1426   1.407       .  A
C1425      C1430   1.404       .  A
C1425      H1432   1.084       .  S
C1426      C1427   1.419       .  A
C1427      C1434   1.508       .  S
C1428      C1429   1.401       .  A
C1428      H1433   1.084       .  S
C1430      C1431   1.507       .  S
C1431      H1435   1.111       .  S
C1431      H1436   1.110       .  S
C1431      H1437   1.109       .  S
C1434      H1438   1.110       .  S
C1434      H1439   1.110       .  S
C1441      C1442   1.400       .  A
C1441      C1446   1.406       .  A
C1441      H1448   1.084       .  S
C1442      C1443   1.409       .  A
C1443      C1444   1.403       .  A
C1443      C1450   1.507   1_655  S
C1444      C1445   1.409       .  A
C1444      H1449   1.083       .  S
C1445      C1446   1.423       .  A
C1446      C1447   1.508       .  S
C1447      H1451   1.111       .  S
C1447      H1452   1.110       .  S
C1447      H1453   1.110       .  S
C1450      H1455   1.109       .  S
C1457      C1458   1.405       .  A
C1457      C1462   1.404       .  A
C1457      H1464   1.084       .  S
C1458      C1459   1.416       .  A
C1459      C1460   1.402       .  A
C1459      C1466   1.508       .  S
C1460      C1461   1.402       .  A
C1460      H1465   1.084       .  S
C1461      C1462   1.414       .  A
C1462      C1463   1.508       .  S
C1463      H1467   1.111       .  S
C1463      H1468   1.109       .  S
C1463      H1469   1.110       .  S
C1466      H1470   1.109       .  S
C1466      H1471   1.110       .  S
C1466      H1472   1.111       .  S
C1473      C1474   1.403       .  A
C1473      C1478   1.402       .  A
C1473      H1480   1.084       .  S
C1474      C1475   1.417       .  A
C1475      C1476   1.401       .  A
C1475      C1482   1.509       .  S
C1476      C1477   1.401       .  A
C1476      H1481   1.084       .  S
C1477      C1478   1.415       .  A
C1478      C1479   1.508       .  S
C1479      H1483   1.111       .  S
C1479      H1484   1.109       .  S
C1479      H1485   1.110       .  S
C1482      H1486   1.110       .  S
C1482      H1487   1.110       .  S
C1482      H1488   1.111       .  S
C1489      C1490   1.406       .  A
C1489      C1494   1.405       .  A
C1489      H1496   1.084       .  S
C1490      C1491   1.418       .  A
C1491      C1492   1.403       .  A
C1491      C1498   1.508       .  S
C1492      C1493   1.401       .  A
C1492      H1497   1.084       .  S
C1493      C1494   1.413       .  A
C1494      C1495   1.507       .  S
C1495      H1499   1.111       .  S
C1495      H1500   1.109       .  S
C1495      H1501   1.110       .  S
C1498      H1502   1.109       .  S
C1498      H1503   1.110       .  S
C1498      H1504   1.111       .  S
C1505      C1506   1.399       .  A
C1505      C1510   1.401       .  A
C1505      H1512   1.085       .  S
C1506      C1507   1.411       .  A
C1507      C1508   1.404       .  A
C1507      C1514   1.507       .  S
C1508      C1509   1.406       .  A
C1508      H1513   1.084       .  S
C1509      C1510   1.420       .  A
C1510      C1511   1.509       .  S
C1511      H1515   1.111       .  S
C1511      H1516   1.110       .  S
C1511      H1517   1.109       .  S
C1514      H1518   1.111       .  S
C1514      H1519   1.109       .  S
C1514      H1520   1.111       .  S
