geometry optimzed in LAMMPS
_audit_creation_date              2020-12-01 
_audit_creation_method            'lammps2cif' 
_symmetry_space_group_name_H-M    'P1' 
_symmetry_Int_Tables_number       1 
_symmetry_cell_setting            triclinic 
loop_ 
_symmetry_equiv_pos_as_xyz 
  x,y,z 
_cell_length_a                    30.01690275 
_cell_length_b                    30.01752813517548 
_cell_length_c                    30.2057165178773 
_cell_angle_alpha                 90.0022284228644 
_cell_angle_beta                  89.9908148536348 
_cell_angle_gamma                 90.98154775737947 
loop_ 
_atom_site_label 
_atom_site_type_symbol 
_atom_site_fract_x 
_atom_site_fract_y 
_atom_site_fract_z 
_atom_site_charge 
N1          N  0.00466094  0.50177498  0.43144873     0.01800
C2          C  0.50602971  0.03810422  0.40506627     0.04400
C3          C  0.50865403  0.02567863  0.36114802    -0.18500
C4          C  0.49143496  0.47795090  0.36138642    -0.18700
C5          C  0.49388271  0.46572387  0.40536810     0.04300
H6          H  0.50998449  0.04753293  0.33265722     0.18000
H7          H  0.49022267  0.45596842  0.33298825     0.18100
N8          N  0.25018380  0.24835904  0.31434267     0.01800
C9          C  0.28573042  0.24692975  0.34169050     0.04400
C10         C  0.27205421  0.24513981  0.38529849    -0.18500
C11         C  0.22619628  0.24545047  0.38466743    -0.18700
C12         C  0.21382496  0.24742451  0.34070123     0.04300
H13         H  0.29308792  0.24391284  0.41436223     0.18000
H14         H  0.20430563  0.24449361  0.41314506     0.18100
In15       In  0.99991865  0.25200489  0.37132026     1.36900
C16         C  0.49820177  0.33428190  0.40515392     0.82800
O17         O  0.07281861  0.25100457  0.38161023    -0.55600
O18         O  0.04931504  0.25096623  0.31480336    -0.46500
C19         C  0.99718258  0.16964567  0.40171870     0.75500
O20         O  0.50115957  0.20255900  0.43096743    -0.41400
C21         C  0.41768994  0.24955724  0.34396796     0.80200
O22         O  0.00134809  0.30120924  0.42799210    -0.53200
O23         O  0.45073760  0.25080499  0.31792625    -0.43300
O24         O  0.49876473  0.32496342  0.36448379    -0.49700
C25         C  0.08225924  0.25060989  0.34096239     0.90400
O26         O  0.99726562  0.17903800  0.36105354    -0.51600
O27         O  0.42699208  0.24941816  0.38464951    -0.54900
In28       In  0.24976419  0.00252251  0.12093332     1.36900
C29         C  0.25100267  0.42025267  0.15539131     0.82800
O30         O  0.17685997  0.00317976  0.13124145    -0.55600
O31         O  0.20044400  0.50120772  0.06832780    -0.46500
C32         C  0.25206060  0.08486053  0.15140527     0.75500
O33         O  0.25101043  0.05184880  0.17748519    -0.41400
C34         C  0.33205939  0.00109953  0.09046190     0.80200
O35         O  0.25066463  0.45322381  0.18152440    -0.53200
O36         O  0.29908081  0.00141735  0.06434515    -0.43300
O37         O  0.25054868  0.42964762  0.11473793    -0.49700
C38         C  0.16741720  0.00357348  0.09059809     0.90400
O39         O  0.25202021  0.07550368  0.11073207    -0.51600
O40         O  0.32267809  0.00169362  0.13111932    -0.54900
N41         N  0.99998808  0.49791277  0.06423130     0.01800
C42         C  0.03539270  0.49620588  0.09173722     0.03600
C43         C  0.02149654  0.49395614  0.13525661    -0.18500
C44         C  0.47781490  0.50859722  0.13545878    -0.18700
C45         C  0.46399285  0.50703518  0.09189401     0.04300
H46         H  0.04238379  0.49251105  0.16441226     0.18000
H47         H  0.45688041  0.50971051  0.16460576     0.18100
N48         N  0.25361096  0.25229826  0.18151555     0.01800
C49         C  0.25499403  0.21688473  0.15398801     0.04400
C50         C  0.25676283  0.23076995  0.11044741    -0.18500
C51         C  0.25647337  0.27662376  0.11130886    -0.18700
C52         C  0.25453336  0.28878267  0.15533872     0.04300
H53         H  0.25792793  0.20987641  0.08127630     0.18000
H54         H  0.25738374  0.29865066  0.08293901     0.18100
C55         C  0.37764670  0.99989759  0.07630683    -0.08000
C56         C  0.41772434  0.50633112  0.07928741    -0.09600
C57         C  0.08166357  0.00522619  0.07648426    -0.08000
C58         C  0.12179604  0.00434342  0.07651343    -0.09600
C59         C  0.25309313  0.33453056  0.16953161    -0.08000
C60         C  0.25200042  0.37465342  0.16951883    -0.09600
C61         C  0.25402699  0.17059698  0.16652441    -0.08000
C62         C  0.25315236  0.13044489  0.16569061    -0.09600
C63         C  0.25197986  0.25130728  0.22798507    -0.08000
C64         C  0.25095432  0.25011986  0.26787399    -0.09600
C65         C  0.12787435  0.24971434  0.32685217    -0.08000
C66         C  0.16800457  0.24875607  0.32672919    -0.09600
C67         C  0.33196062  0.24777320  0.32892568    -0.08000
C68         C  0.37211658  0.24852724  0.32965204    -0.09600
C69         C  0.00102478  0.49987621  0.01777604    -0.08000
C70         C  0.00242802  0.50103113  0.47789771    -0.09600
C71         C  0.99471901  0.08389731  0.41674938    -0.08000
C72         C  0.99583721  0.12404944  0.41596186    -0.09600
C73         C  0.49561694  0.41995856  0.41945558    -0.08000
C74         C  0.49694645  0.37984662  0.41936248    -0.09600
N75         N  0.00466090  0.50177503  0.93144887     0.01800
C76         C  0.50602979  0.03810421  0.90506629     0.04400
C77         C  0.50865414  0.02567854  0.86114805    -0.18500
C78         C  0.49143491  0.47795089  0.86138628    -0.18700
C79         C  0.49388264  0.46572395  0.90536801     0.04300
H80         H  0.50998454  0.04753269  0.83265719     0.18000
H81         H  0.49022266  0.45596815  0.83298834     0.18100
N82         N  0.25018384  0.24835915  0.81434273     0.01800
C83         C  0.28573055  0.24692974  0.84169064     0.04400
C84         C  0.27205446  0.24513985  0.88529863    -0.18500
C85         C  0.22619652  0.24545039  0.88466750    -0.18700
C86         C  0.21382507  0.24742475  0.84070124     0.04300
H87         H  0.29308832  0.24391252  0.91436271     0.18000
H88         H  0.20430614  0.24449404  0.91314489     0.18100
In89       In  0.99991873  0.25200496  0.87132025     1.36900
C90         C  0.49820202  0.33428188  0.90515387     0.82800
O91         O  0.07281873  0.25100463  0.88161035    -0.55600
O92         O  0.04931516  0.25096631  0.81480342    -0.46500
C93         C  0.99718255  0.16964569  0.90171881     0.75500
O94         O  0.50115955  0.20255889  0.93096746    -0.41400
C95         C  0.41768991  0.24955724  0.84396807     0.80200
O96         O  0.00134814  0.30120930  0.92799217    -0.53200
O97         O  0.45073755  0.25080493  0.81792636    -0.43300
O98         O  0.49876490  0.32496325  0.86448371    -0.49700
C99         C  0.08225932  0.25060980  0.84096248     0.90400
O100        O  0.99726565  0.17903811  0.86105371    -0.51600
O101        O  0.42699206  0.24941810  0.88464964    -0.54900
In102      In  0.24976416  0.00252244  0.62093337     1.36900
C103        C  0.25100262  0.42025274  0.65539134     0.82800
O104        O  0.17685985  0.00317994  0.63124140    -0.55600
O105        O  0.20044389  0.50120791  0.56832789    -0.46500
C106        C  0.25206057  0.08486052  0.65140523     0.75500
O107        O  0.25101040  0.05184881  0.67748509    -0.41400
C108        C  0.33205935  0.00109959  0.59046197     0.80200
O109        O  0.25066458  0.45322391  0.68152444    -0.53200
O110        O  0.29908079  0.00141758  0.56434521    -0.43300
O111        O  0.25054864  0.42964765  0.61473797    -0.49700
C112        C  0.16741719  0.00357337  0.59059805     0.90400
O113        O  0.25202020  0.07550361  0.61073212    -0.51600
O114        O  0.32267806  0.00169358  0.63111939    -0.54900
N115        N  0.99998815  0.49791270  0.56423124     0.01800
C116        C  0.03539279  0.49620570  0.59173716     0.03600
C117        C  0.02149659  0.49395612  0.63525648    -0.18500
C118        C  0.47781489  0.50859725  0.63545876    -0.18700
C119        C  0.46399283  0.50703506  0.59189401     0.04300
H120        H  0.04238367  0.49251091  0.66441227     0.18000
H121        H  0.45688038  0.50970992  0.66460573     0.18100
N122        N  0.25361093  0.25229824  0.68151560     0.01800
C123        C  0.25499400  0.21688468  0.65398803     0.04400
C124        C  0.25676280  0.23076996  0.61044745    -0.18500
C125        C  0.25647333  0.27662368  0.61130894    -0.18700
C126        C  0.25453333  0.28878261  0.65533879     0.04300
H127        H  0.25792791  0.20987651  0.58127615     0.18000
H128        H  0.25738371  0.29865043  0.58293905     0.18100
C129        C  0.37764665  0.99989766  0.57630688    -0.08000
C130        C  0.41772425  0.50633109  0.57928742    -0.09600
C131        C  0.08166363  0.00522614  0.57648426    -0.08000
C132        C  0.12179610  0.00434342  0.57651346    -0.09600
C133        C  0.25309308  0.33453056  0.66953162    -0.08000
C134        C  0.25200039  0.37465344  0.66951876    -0.09600
C135        C  0.25402695  0.17059689  0.66652439    -0.08000
C136        C  0.25315231  0.13044481  0.66569049    -0.09600
C137        C  0.25197980  0.25130745  0.72798510    -0.08000
C138        C  0.25095427  0.25011988  0.76787401    -0.09600
C139        C  0.12787439  0.24971451  0.82685218    -0.08000
C140        C  0.16800460  0.24875620  0.82672930    -0.09600
C141        C  0.33196064  0.24777336  0.82892558    -0.08000
C142        C  0.37211658  0.24852713  0.82965201    -0.09600
C143        C  0.00102485  0.49987608  0.51777597    -0.08000
C144        C  0.00242804  0.50103107  0.97789780    -0.09600
C145        C  0.99471893  0.08389742  0.91674927    -0.08000
C146        C  0.99583714  0.12404955  0.91596194    -0.09600
C147        C  0.49561705  0.41995871  0.91945548    -0.08000
C148        C  0.49694647  0.37984674  0.91936258    -0.09600
N149        N  0.99513560  0.00216871  0.43159636     0.01800
C150        C  0.49344245  0.53762628  0.40415158     0.04400
C151        C  0.49115807  0.52380684  0.36061030    -0.18500
C152        C  0.50892309  0.97981883  0.36057496    -0.18700
C153        C  0.50645851  0.96619619  0.40416771     0.04300
H154        H  0.48970199  0.54474584  0.33148994     0.18000
H155        H  0.51048900  0.95874810  0.33155312     0.18100
N156        N  0.24978449  0.75788502  0.31436530     0.01800
C157        C  0.28620036  0.75948663  0.34061674     0.04400
C158        C  0.27392113  0.76261764  0.38454190    -0.18500
C159        C  0.22806345  0.76296128  0.38525530    -0.18700
C160        C  0.21429600  0.76003342  0.34173482     0.04300
H161        H  0.29586773  0.76415800  0.41295261     0.18000
H162        H  0.20708850  0.76480350  0.41432837     0.18100
In163      In  0.99997236  0.75205532  0.37456038     1.36900
C164        C  0.50261594  0.83426254  0.40196211     0.82800
O165        O  0.07292916  0.75491894  0.38477672    -0.55600
O166        O  0.04931112  0.75379087  0.31801203    -0.46500
C167        C  0.00168208  0.66966478  0.40474964     0.75500
O168        O  0.49841991  0.70263302  0.42782856    -0.41400
C169        C  0.41763259  0.75394053  0.34089911     0.80200
O170        O  0.99866431  0.80126817  0.43122807    -0.53200
O171        O  0.45060044  0.75342390  0.31476498    -0.43300
O172        O  0.50258031  0.82497473  0.36127628    -0.49700
C173        C  0.08230502  0.75514370  0.34410763     0.90400
O174        O  0.00121324  0.67917090  0.36411836    -0.51600
O175        O  0.42701627  0.75325275  0.38155189    -0.54900
In176      In  0.24968384  0.50254952  0.12494756     1.36900
C177        C  0.24747756  0.92026442  0.15158682     0.82800
O178        O  0.17669853  0.50006573  0.13505385    -0.55600
O179        O  0.20036352  0.00336142  0.06442696    -0.46500
C180        C  0.24834688  0.58488746  0.15531152     0.75500
O181        O  0.24866750  0.55193843  0.18146630    -0.41400
C182        C  0.33199253  0.50476342  0.09439367     0.80200
O183        O  0.24858395  0.95332923  0.17760517    -0.53200
O184        O  0.29896061  0.50369426  0.06834092    -0.43300
O185        O  0.24747197  0.92953633  0.11089770    -0.49700
C186        C  0.16739834  0.49999671  0.09437075     0.90400
O187        O  0.24882536  0.57545684  0.11466362    -0.51600
O188        O  0.32266578  0.50484638  0.13507313    -0.54900
N189        N  0.99944399  0.00571313  0.06440572     0.01800
C190        C  0.03589123  0.00647881  0.09063149     0.03600
C191        C  0.02366918  0.00824800  0.13465380    -0.18500
C192        C  0.47564258  0.99427794  0.13440338    -0.18700
C193        C  0.46349472  0.99671726  0.09039917     0.04300
H194        H  0.04565623  0.00905748  0.16305374     0.18000
H195        H  0.45360890  0.99311391  0.16276733     0.18100
N196        N  0.24581149  0.75283785  0.18160385     0.01800
C197        C  0.24467084  0.71638135  0.15538907     0.04400
C198        C  0.24244435  0.72859477  0.11138902    -0.18500
C199        C  0.24219424  0.77445065  0.11058775    -0.18700
C200        C  0.24427242  0.78828229  0.15413231     0.04300
H201        H  0.24132917  0.70660149  0.08299622     0.18000
H202        H  0.24085970  0.79537995  0.08145316     0.18100
C203        C  0.37757062  0.50567917  0.08008253    -0.08000
C204        C  0.41775734  0.99852753  0.07624485    -0.09600
C205        C  0.08168424  0.49750248  0.07920940    -0.08000
C206        C  0.12183401  0.49865653  0.08004249    -0.09600
C207        C  0.24539575  0.83455423  0.16673134    -0.08000
C208        C  0.24635409  0.87470564  0.16593810    -0.09600
C209        C  0.24620217  0.67061605  0.16950208    -0.08000
C210        C  0.24733414  0.63049449  0.16942454    -0.09600
C211        C  0.24770876  0.75383490  0.22806208    -0.08000
C212        C  0.24890399  0.75534224  0.26793488    -0.09600
C213        C  0.12789377  0.75683159  0.32985473    -0.08000
C214        C  0.16804110  0.75832252  0.32910588    -0.09600
C215        C  0.33196839  0.75721970  0.32663134    -0.08000
C216        C  0.37205962  0.75549019  0.32676073    -0.09600
C217        C  0.99849230  0.00414342  0.01793389    -0.08000
C218        C  0.99720278  0.00307544  0.47804969    -0.09600
C219        C  0.00423947  0.58393071  0.41894737    -0.08000
C220        C  0.00290365  0.62404335  0.41879199    -0.09600
C221        C  0.50510412  0.91998266  0.41696972    -0.08000
C222        C  0.50395407  0.87983003  0.41628588    -0.09600
N223        N  0.99513557  0.00216869  0.93159629     0.01800
C224        C  0.49344240  0.53762637  0.90415147     0.04400
C225        C  0.49115803  0.52380689  0.86061021    -0.18500
C226        C  0.50892300  0.97981866  0.86057518    -0.18700
C227        C  0.50645842  0.96619623  0.90416792     0.04300
H228        H  0.48970198  0.54474616  0.83148959     0.18000
H229        H  0.51048879  0.95874752  0.83155373     0.18100
N230        N  0.24978445  0.75788485  0.81436535     0.01800
C231        C  0.28620028  0.75948672  0.84061682     0.04400
C232        C  0.27392093  0.76261767  0.88454202    -0.18500
C233        C  0.22806322  0.76296129  0.88525533    -0.18700
C234        C  0.21429592  0.76003325  0.84173490     0.04300
H235        H  0.29586763  0.76415858  0.91295266     0.18000
H236        H  0.20708780  0.76480318  0.91432836     0.18100
In237      In  0.99997232  0.75205526  0.87456044     1.36900
C238        C  0.50261604  0.83426250  0.90196215     0.82800
O239        O  0.07292915  0.75491881  0.88477677    -0.55600
O240        O  0.04931107  0.75379075  0.81801210    -0.46500
C241        C  0.00168204  0.66966466  0.90474960     0.75500
O242        O  0.49841986  0.70263292  0.92782865    -0.41400
C243        C  0.41763259  0.75394084  0.84089897     0.80200
O244        O  0.99866425  0.80126821  0.93122810    -0.53200
O245        O  0.45060046  0.75342391  0.81476487    -0.43300
O246        O  0.50258031  0.82497476  0.86127632    -0.49700
C247        C  0.08230499  0.75514356  0.84410767     0.90400
O248        O  0.00121321  0.67917078  0.86411831    -0.51600
O249        O  0.42701627  0.75325276  0.88155174    -0.54900
In250      In  0.24968385  0.50254957  0.62494762     1.36900
C251        C  0.24747782  0.92026437  0.65158691     0.82800
O252        O  0.17669847  0.50006558  0.63505390    -0.55600
O253        O  0.20036356  0.00336126  0.56442698    -0.46500
C254        C  0.24834684  0.58488743  0.65531162     0.75500
O255        O  0.24866748  0.55193836  0.68146643    -0.41400
C256        C  0.33199253  0.50476328  0.59439374     0.80200
O257        O  0.24858400  0.95332921  0.67760531    -0.53200
O258        O  0.29896064  0.50369422  0.56834098    -0.43300
O259        O  0.24747203  0.92953616  0.61089779    -0.49700
C260        C  0.16739826  0.49999687  0.59437082     0.90400
O261        O  0.24882534  0.57545688  0.61466367    -0.51600
O262        O  0.32266580  0.50484633  0.63507320    -0.54900
N263        N  0.99944391  0.00571333  0.56440570     0.01800
C264        C  0.03589121  0.00647866  0.59063139     0.03600
C265        C  0.02366925  0.00824808  0.63465362    -0.18500
C266        C  0.47564249  0.99427793  0.63440307    -0.18700
C267        C  0.46349470  0.99671723  0.59039889     0.04300
H268        H  0.04565636  0.00905680  0.66305352     0.18000
H269        H  0.45360907  0.99311418  0.66276675     0.18100
N270        N  0.24581148  0.75283779  0.68160389     0.01800
C271        C  0.24467093  0.71638128  0.65538921     0.04400
C272        C  0.24244434  0.72859447  0.61138928    -0.18500
C273        C  0.24219423  0.77445037  0.61058793    -0.18700
C274        C  0.24427253  0.78828219  0.65413237     0.04300
H275        H  0.24132905  0.70660095  0.58299686     0.18000
H276        H  0.24085917  0.79537937  0.58145332     0.18100
C277        C  0.37757054  0.50567899  0.58008260    -0.08000
C278        C  0.41775728  0.99852759  0.57624469    -0.09600
C279        C  0.08168428  0.49750247  0.57920940    -0.08000
C280        C  0.12183400  0.49865643  0.58004255    -0.09600
C281        C  0.24539571  0.83455421  0.66673120    -0.08000
C282        C  0.24635409  0.87470561  0.66593798    -0.09600
C283        C  0.24620215  0.67061604  0.66950217    -0.08000
C284        C  0.24733409  0.63049448  0.66942463    -0.09600
C285        C  0.24770885  0.75383489  0.72806207    -0.08000
C286        C  0.24890399  0.75534215  0.76793489    -0.09600
C287        C  0.12789373  0.75683145  0.82985470    -0.08000
C288        C  0.16804106  0.75832238  0.82910602    -0.09600
C289        C  0.33196834  0.75721980  0.82663141    -0.08000
C290        C  0.37205957  0.75549031  0.82676057    -0.09600
C291        C  0.99849238  0.00414341  0.51793388    -0.08000
C292        C  0.99720272  0.00307547  0.97804966    -0.09600
C293        C  0.00423945  0.58393072  0.91894718    -0.08000
C294        C  0.00290361  0.62404331  0.91879195    -0.09600
C295        C  0.50510423  0.91998265  0.91696983    -0.08000
C296        C  0.50395407  0.87983000  0.91628585    -0.09600
N297        N  0.49513559  0.50216863  0.43159632     0.01800
C298        C  0.99344242  0.03762636  0.40415164     0.04400
C299        C  0.99115801  0.02380698  0.36061037    -0.18500
C300        C  0.00892306  0.47981878  0.36057498    -0.18700
C301        C  0.00645845  0.46619614  0.40416770     0.04300
H302        H  0.98970142  0.04474593  0.33149008     0.18000
H303        H  0.01048919  0.45874793  0.33155316     0.18100
N304        N  0.74978451  0.25788487  0.31436528     0.01800
C305        C  0.78620031  0.25948666  0.34061678     0.04400
C306        C  0.77392085  0.26261758  0.38454197    -0.18500
C307        C  0.72806327  0.26296136  0.38525526    -0.18700
C308        C  0.71429598  0.26003349  0.34173481     0.04300
H309        H  0.79586740  0.26415812  0.41295275     0.18000
H310        H  0.70708795  0.26480376  0.41432839     0.18100
In311      In  0.49997229  0.25205533  0.37456037     1.36900
C312        C  0.00261581  0.33426247  0.40196209     0.82800
O313        O  0.57292916  0.25491870  0.38477675    -0.55600
O314        O  0.54931097  0.25379092  0.31801203    -0.46500
C315        C  0.50168200  0.16966479  0.40474963     0.75500
O316        O  0.99841991  0.20263295  0.42782859    -0.41400
C317        C  0.91763249  0.25394058  0.34089908     0.80200
O318        O  0.49866417  0.30126824  0.43122810    -0.53200
O319        O  0.95060032  0.25342384  0.31476494    -0.43300
O320        O  0.00258030  0.32497470  0.36127627    -0.49700
C321        C  0.58230490  0.25514371  0.34410763     0.90400
O322        O  0.50121333  0.17917091  0.36411837    -0.51600
O323        O  0.92701612  0.25325272  0.38155188    -0.54900
In324      In  0.74968393  0.00254950  0.12494764     1.36900
C325        C  0.74747774  0.42026434  0.15158679     0.82800
O326        O  0.67669853  0.00006573  0.13505384    -0.55600
O327        O  0.70036343  0.50336127  0.06442698    -0.46500
C328        C  0.74834707  0.08488735  0.15531148     0.75500
O329        O  0.74866752  0.05193824  0.18146630    -0.41400
C330        C  0.83199252  0.00476332  0.09439367     0.80200
O331        O  0.74858384  0.45332922  0.17760514    -0.53200
O332        O  0.79896061  0.00369412  0.06834093    -0.43300
O333        O  0.74747188  0.42953623  0.11089767    -0.49700
C334        C  0.66739832  0.99999689  0.09437084     0.90400
O335        O  0.74882536  0.07545682  0.11466350    -0.51600
O336        O  0.82266584  0.00484657  0.13507314    -0.54900
N337        N  0.49944385  0.50571307  0.06440570     0.01800
C338        C  0.53589116  0.50647872  0.09063145     0.03600
C339        C  0.52366935  0.50824803  0.13465375    -0.18500
C340        C  0.97564248  0.49427786  0.13440324    -0.18700
C341        C  0.96349462  0.49671732  0.09039911     0.04300
H342        H  0.54565645  0.50905744  0.16305359     0.18000
H343        H  0.95360887  0.49311399  0.16276726     0.18100
N344        N  0.74581159  0.25283776  0.18160386     0.01800
C345        C  0.74467084  0.21638128  0.15538903     0.04400
C346        C  0.74244430  0.22859450  0.11138904    -0.18500
C347        C  0.74219426  0.27445035  0.11058790    -0.18700
C348        C  0.74427240  0.28828211  0.15413242     0.04300
H349        H  0.74132909  0.20660099  0.08299606     0.18000
H350        H  0.74085899  0.29537964  0.08145364     0.18100
C351        C  0.87757058  0.00567904  0.08008249    -0.08000
C352        C  0.91775739  0.49852748  0.07624479    -0.09600
C353        C  0.58168419  0.99750256  0.07920960    -0.08000
C354        C  0.62183390  0.99865651  0.08004281    -0.09600
C355        C  0.74539581  0.33455405  0.16673128    -0.08000
C356        C  0.74635407  0.37470547  0.16593799    -0.09600
C357        C  0.74620220  0.17061609  0.16950213    -0.08000
C358        C  0.74733391  0.13049448  0.16942452    -0.09600
C359        C  0.74770881  0.25383468  0.22806207    -0.08000
C360        C  0.74890397  0.25534229  0.26793485    -0.09600
C361        C  0.62789364  0.25683149  0.32985476    -0.08000
C362        C  0.66804101  0.25832260  0.32910596    -0.09600
C363        C  0.83196837  0.25721965  0.32663140    -0.08000
C364        C  0.87205959  0.25549030  0.32676071    -0.09600
C365        C  0.49849233  0.50414335  0.01793389    -0.08000
C366        C  0.49720269  0.50307550  0.47804963    -0.09600
C367        C  0.50423942  0.08393078  0.41894733    -0.08000
C368        C  0.50290356  0.12404342  0.41879198    -0.09600
C369        C  0.00510415  0.41998258  0.41696972    -0.08000
C370        C  0.00395408  0.37982994  0.41628576    -0.09600
N371        N  0.49513554  0.50216866  0.93159628     0.01800
C372        C  0.99344235  0.03762641  0.90415146     0.04400
C373        C  0.99115806  0.02380687  0.86061020    -0.18500
C374        C  0.00892291  0.47981875  0.86057521    -0.18700
C375        C  0.00645826  0.46619620  0.90416796     0.04300
H376        H  0.98970142  0.04474606  0.83148952     0.18000
H377        H  0.01048835  0.45874798  0.83155382     0.18100
N378        N  0.74978445  0.25788492  0.81436534     0.01800
C379        C  0.78620028  0.25948665  0.84061686     0.04400
C380        C  0.77392089  0.26261764  0.88454206    -0.18500
C381        C  0.72806327  0.26296123  0.88525528    -0.18700
C382        C  0.71429592  0.26003332  0.84173486     0.04300
H383        H  0.79586746  0.26415785  0.91295286     0.18000
H384        H  0.70708793  0.26480320  0.91432840     0.18100
In385      In  0.49997225  0.25205529  0.87456044     1.36900
C386        C  0.00261578  0.33426249  0.90196218     0.82800
O387        O  0.57292908  0.25491886  0.88477678    -0.55600
O388        O  0.54931105  0.25379081  0.81801214    -0.46500
C389        C  0.50168197  0.16966470  0.90474960     0.75500
O390        O  0.99841994  0.20263290  0.92782866    -0.41400
C391        C  0.91763263  0.25394073  0.84089897     0.80200
O392        O  0.49866405  0.30126820  0.93122806    -0.53200
O393        O  0.95060047  0.25342403  0.81476486    -0.43300
O394        O  0.00258033  0.32497473  0.86127636    -0.49700
C395        C  0.58230497  0.25514362  0.84410770     0.90400
O396        O  0.50121333  0.17917084  0.86411831    -0.51600
O397        O  0.92701629  0.25325256  0.88155174    -0.54900
In398      In  0.74968392  0.00254960  0.62494747     1.36900
C399        C  0.74747759  0.42026439  0.65158692     0.82800
O400        O  0.67669863  0.00006559  0.63505384    -0.55600
O401        O  0.70036331  0.50336127  0.56442706    -0.46500
C402        C  0.74834692  0.08488746  0.65531157     0.75500
O403        O  0.74866757  0.05193833  0.68146629    -0.41400
C404        C  0.83199255  0.00476334  0.59439356     0.80200
O405        O  0.74858391  0.45332924  0.67760531    -0.53200
O406        O  0.79896070  0.00369427  0.56834067    -0.43300
O407        O  0.74747195  0.42953614  0.61089779    -0.49700
C408        C  0.66739833  0.99999690  0.59437076     0.90400
O409        O  0.74882544  0.07545698  0.61466361    -0.51600
O410        O  0.82266580  0.00484640  0.63507310    -0.54900
N411        N  0.49944389  0.50571324  0.56440570     0.01800
C412        C  0.53589119  0.50647857  0.59063147     0.03600
C413        C  0.52366935  0.50824804  0.63465374    -0.18500
C414        C  0.97564246  0.49427798  0.63440309    -0.18700
C415        C  0.96349466  0.49671731  0.59039891     0.04300
H416        H  0.54565641  0.50905686  0.66305359     0.18000
H417        H  0.95360901  0.49311432  0.66276670     0.18100
N418        N  0.74581154  0.25283786  0.68160389     0.01800
C419        C  0.74467065  0.21638139  0.65538926     0.04400
C420        C  0.74244419  0.22859477  0.61138927    -0.18500
C421        C  0.74219412  0.27445067  0.61058794    -0.18700
C422        C  0.74427236  0.28828231  0.65413233     0.04300
H423        H  0.74132828  0.20660151  0.58299697     0.18000
H424        H  0.74085894  0.29537994  0.58145323     0.18100
C425        C  0.87757066  0.00567905  0.58008240    -0.08000
C426        C  0.91775731  0.49852768  0.57624467    -0.09600
C427        C  0.58168424  0.99750251  0.57920940    -0.08000
C428        C  0.62183396  0.99865636  0.58004257    -0.09600
C429        C  0.74539580  0.33455426  0.66673119    -0.08000
C430        C  0.74635417  0.37470565  0.66593799    -0.09600
C431        C  0.74620215  0.17061608  0.66950217    -0.08000
C432        C  0.74733402  0.13049451  0.66942465    -0.09600
C433        C  0.74770884  0.25383497  0.72806207    -0.08000
C434        C  0.74890406  0.25534222  0.76793488    -0.09600
C435        C  0.62789373  0.25683151  0.82985471    -0.08000
C436        C  0.66804107  0.25832245  0.82910594    -0.09600
C437        C  0.83196842  0.25721985  0.82663148    -0.08000
C438        C  0.87205968  0.25549036  0.82676058    -0.09600
C439        C  0.49849235  0.50414339  0.51793386    -0.08000
C440        C  0.49720269  0.50307546  0.97804965    -0.09600
C441        C  0.50423953  0.08393073  0.91894717    -0.08000
C442        C  0.50290369  0.12404334  0.91879194    -0.09600
C443        C  0.00510408  0.41998252  0.91696983    -0.08000
C444        C  0.00395402  0.37982989  0.91628595    -0.09600
N445        N  0.50466096  0.00177499  0.43144873     0.01800
C446        C  0.00602974  0.53810420  0.40506629     0.04400
C447        C  0.00865424  0.52567863  0.36114808    -0.18500
C448        C  0.99143475  0.97795102  0.36138638    -0.18700
C449        C  0.99388260  0.96572402  0.40536811     0.04300
H450        H  0.00998430  0.54753296  0.33265734     0.18000
H451        H  0.99022198  0.95596888  0.33298828     0.18100
N452        N  0.75018382  0.74835897  0.31434291     0.01800
C453        C  0.78573054  0.74692967  0.34169071     0.04400
C454        C  0.77205419  0.74513974  0.38529863    -0.18500
C455        C  0.72619631  0.74545044  0.38466770    -0.18700
C456        C  0.71382488  0.74742455  0.34070154     0.04300
H457        H  0.79308824  0.74391280  0.41436259     0.18000
H458        H  0.70430549  0.74449368  0.41314569     0.18100
In459      In  0.49991869  0.75200498  0.37132029     1.36900
C460        C  0.99820193  0.83428190  0.40515389     0.82800
O461        O  0.57281872  0.75100465  0.38161023    -0.55600
O462        O  0.54931517  0.75096635  0.31480349    -0.46500
C463        C  0.49718251  0.66964575  0.40171867     0.75500
O464        O  0.00115977  0.70255903  0.43096743    -0.41400
C465        C  0.91768999  0.74955719  0.34396797     0.80200
O466        O  0.50134812  0.80120931  0.42799211    -0.53200
O467        O  0.95073762  0.75080496  0.31792625    -0.43300
O468        O  0.99876485  0.82496345  0.36448376    -0.49700
C469        C  0.58225932  0.75060973  0.34096247     0.90400
O470        O  0.49726564  0.67903815  0.36105353    -0.51600
O471        O  0.92699215  0.74941814  0.38464950    -0.54900
In472      In  0.74976412  0.50252249  0.12093333     1.36900
C473        C  0.75100284  0.92025281  0.15539141     0.82800
O474        O  0.67685987  0.50317995  0.13124147    -0.55600
O475        O  0.70044408  0.00120775  0.06832800    -0.46500
C476        C  0.75206077  0.58486053  0.15140524     0.75500
O477        O  0.75101051  0.55184880  0.17748517    -0.41400
C478        C  0.83205934  0.50109968  0.09046191     0.80200
O479        O  0.75066477  0.95322400  0.18152462    -0.53200
O480        O  0.79908072  0.50141751  0.06434519    -0.43300
O481        O  0.75054880  0.92964761  0.11473792    -0.49700
C482        C  0.66741714  0.50357359  0.09059811     0.90400
O483        O  0.75202031  0.57550364  0.11073203    -0.51600
O484        O  0.82267797  0.50169347  0.13111934    -0.54900
N485        N  0.49998822  0.99791281  0.06423140     0.01800
C486        C  0.53539283  0.99620580  0.09173743     0.03600
C487        C  0.52149654  0.99395606  0.13525675    -0.18500
C488        C  0.97781481  0.00859717  0.13545883    -0.18700
C489        C  0.96399293  0.00703499  0.09189406     0.04300
H490        H  0.54238382  0.99251084  0.16441292     0.18000
H491        H  0.95688000  0.00970966  0.16460598     0.18100
N492        N  0.75361087  0.75229823  0.18151555     0.01800
C493        C  0.75499382  0.71688476  0.15398795     0.04400
C494        C  0.75676275  0.73077015  0.11044735    -0.18500
C495        C  0.75647331  0.77662389  0.11130881    -0.18700
C496        C  0.75453342  0.78878266  0.15533866     0.04300
H497        H  0.75792747  0.70987661  0.08127614     0.18000
H498        H  0.75738460  0.79865118  0.08293891     0.18100
C499        C  0.87764678  0.49989764  0.07630683    -0.08000
C500        C  0.91772434  0.00633112  0.07928739    -0.09600
C501        C  0.58166358  0.50522609  0.07648423    -0.08000
C502        C  0.62179606  0.50434337  0.07651340    -0.09600
C503        C  0.75309320  0.83453055  0.16953165    -0.08000
C504        C  0.75200061  0.87465347  0.16951891    -0.09600
C505        C  0.75402697  0.67059702  0.16652437    -0.08000
C506        C  0.75315241  0.63044492  0.16569064    -0.09600
C507        C  0.75197967  0.75130734  0.22798515    -0.08000
C508        C  0.75095441  0.75011981  0.26787416    -0.09600
C509        C  0.62787431  0.74971455  0.32685236    -0.08000
C510        C  0.66800448  0.74875606  0.32672947    -0.09600
C511        C  0.83196072  0.74777314  0.32892572    -0.08000
C512        C  0.87211667  0.74852718  0.32965206    -0.09600
C513        C  0.50102481  0.99987623  0.01777605    -0.08000
C514        C  0.50242810  0.00103104  0.47789772    -0.09600
C515        C  0.49471891  0.58389731  0.41674933    -0.08000
C516        C  0.49583708  0.62404948  0.41596182    -0.09600
C517        C  0.99561692  0.91995866  0.41945545    -0.08000
C518        C  0.99694646  0.87984669  0.41936236    -0.09600
N519        N  0.50466104  0.00177505  0.93144886     0.01800
C520        C  0.00602971  0.53810424  0.90506630     0.04400
C521        C  0.00865409  0.52567866  0.86114811    -0.18500
C522        C  0.99143482  0.97795091  0.86138629    -0.18700
C523        C  0.99388280  0.96572395  0.90536801     0.04300
H524        H  0.00998424  0.54753273  0.83265721     0.18000
H525        H  0.99022284  0.95596821  0.83298831     0.18100
N526        N  0.75018384  0.74835919  0.81434275     0.01800
C527        C  0.78573053  0.74692965  0.84169067     0.04400
C528        C  0.77205432  0.74513980  0.88529869    -0.18500
C529        C  0.72619643  0.74545050  0.88466757    -0.18700
C530        C  0.71382495  0.74742470  0.84070132     0.04300
H531        H  0.79308824  0.74391239  0.91436276     0.18000
H532        H  0.70430577  0.74449362  0.91314519     0.18100
In533      In  0.49991870  0.75200495  0.87132025     1.36900
C534        C  0.99820190  0.83428186  0.90515390     0.82800
O535        O  0.57281873  0.75100477  0.88161033    -0.55600
O536        O  0.54931520  0.75096615  0.81480339    -0.46500
C537        C  0.49718247  0.66964567  0.90171881     0.75500
O538        O  0.00115972  0.70255885  0.93096745    -0.41400
C539        C  0.91768999  0.74955718  0.84396808     0.80200
O540        O  0.50134811  0.80120924  0.92799213    -0.53200
O541        O  0.95073761  0.75080486  0.81792636    -0.43300
O542        O  0.99876481  0.82496325  0.86448377    -0.49700
C543        C  0.58225930  0.75060988  0.84096248     0.90400
O544        O  0.49726559  0.67903811  0.86105371    -0.51600
O545        O  0.92699214  0.74941803  0.88464965    -0.54900
In546      In  0.74976413  0.50252241  0.62093334     1.36900
C547        C  0.75100280  0.92025276  0.65539125     0.82800
O548        O  0.67685981  0.50317995  0.63124152    -0.55600
O549        O  0.70044394  0.00120791  0.56832773    -0.46500
C550        C  0.75206072  0.58486052  0.65140523     0.75500
O551        O  0.75101048  0.55184882  0.67748504    -0.41400
C552        C  0.83205934  0.50109956  0.59046199     0.80200
O553        O  0.75066472  0.95322398  0.68152430    -0.53200
O554        O  0.79908077  0.50141750  0.56434524    -0.43300
O555        O  0.75054877  0.92964765  0.61473789    -0.49700
C556        C  0.66741704  0.50357346  0.59059818     0.90400
O557        O  0.75202027  0.57550351  0.61073214    -0.51600
O558        O  0.82267798  0.50169348  0.63111940    -0.54900
N559        N  0.49998820  0.99791275  0.56423122     0.01800
C560        C  0.53539282  0.99620566  0.59173716     0.03600
C561        C  0.52149656  0.99395623  0.63525646    -0.18500
C562        C  0.97781486  0.00859728  0.63545871    -0.18700
C563        C  0.96399285  0.00703511  0.59189404     0.04300
H564        H  0.54238357  0.99251049  0.66441234     0.18000
H565        H  0.95687999  0.00971031  0.66460589     0.18100
N566        N  0.75361082  0.75229832  0.68151545     0.01800
C567        C  0.75499392  0.71688474  0.65398805     0.04400
C568        C  0.75676280  0.73076981  0.61044749    -0.18500
C569        C  0.75647338  0.77662357  0.61130867    -0.18700
C570        C  0.75453336  0.78878270  0.65533850     0.04300
H571        H  0.75792822  0.70987580  0.58127678     0.18000
H572        H  0.75738458  0.79865036  0.58293827     0.18100
C573        C  0.87764670  0.49989767  0.57630690    -0.08000
C574        C  0.91772438  0.00633114  0.57928730    -0.09600
C575        C  0.58166358  0.50522625  0.57648426    -0.08000
C576        C  0.62179602  0.50434341  0.57651347    -0.09600
C577        C  0.75309313  0.83453056  0.66953153    -0.08000
C578        C  0.75200057  0.87465345  0.66951867    -0.09600
C579        C  0.75402695  0.67059695  0.66652447    -0.08000
C580        C  0.75315236  0.63044485  0.66569062    -0.09600
C581        C  0.75197961  0.75130739  0.72798499    -0.08000
C582        C  0.75095441  0.75012000  0.76787397    -0.09600
C583        C  0.62787422  0.74971445  0.82685222    -0.08000
C584        C  0.66800443  0.74875625  0.82672936    -0.09600
C585        C  0.83196071  0.74777329  0.82892557    -0.08000
C586        C  0.87211668  0.74852707  0.82965202    -0.09600
C587        C  0.50102480  0.99987609  0.51777595    -0.08000
C588        C  0.50242815  0.00103104  0.97789781    -0.09600
C589        C  0.49471887  0.58389733  0.91674930    -0.08000
C590        C  0.49583704  0.62404947  0.91596195    -0.09600
C591        C  0.99561697  0.91995865  0.91945546    -0.08000
C592        C  0.99694659  0.87984669  0.91936252    -0.09600
loop_ 
_geom_bond_atom_site_label_1 
_geom_bond_atom_site_label_2 
_geom_bond_distance 
_geom_bond_site_symmetry_2 
_ccdc_geom_bond_type 
N1           C70   1.405       .  S
N1          C301   1.351       .  A
N1          C446   1.351       .  A
C2          N445   1.351       .  A
C2            C3   1.381       .  A
C2          C367   1.440       .  S
C3          C152   1.377   1_545  A
C3            H6   1.082       .  S
C4            C5   1.381       .  A
C4          C151   1.377       .  A
C4            H7   1.082       .  S
C5          N297   1.351       .  A
C5           C73   1.440       .  S
N8           C64   1.405       .  S
N8           C12   1.351       .  A
N8            C9   1.351       .  A
C9           C10   1.380       .  A
C9           C67   1.440       .  S
C10          C11   1.377       .  A
C10          H13   1.082       .  S
C11          C12   1.381       .  A
C11          H14   1.082       .  S
C12          C66   1.440       .  S
In15         O17   2.211   1_655  S
In15         O18   2.262   1_655  S
In15         O26   2.212       .  S
In15         O22   2.261   1_655  S
In15        O316   2.260       .  S
In15        O319   2.262       .  S
In15        O320   2.211   1_655  S
In15        O323   2.211       .  S
C16          C74   1.435       .  S
C16          O24   1.260       .  A
C16         O318   1.266       .  A
O17          C25   1.260       .  A
O18          C25   1.266       .  A
C19          C72   1.435       .  S
C19          O26   1.260       .  A
C19         O316   1.266       .  A
O20        In311   2.261       .  S
O20         C315   1.266       .  A
C21          C68   1.435       .  S
C21          O23   1.266       .  A
C21          O27   1.260       .  A
O22         C312   1.266       .  A
O23        In311   2.261       .  S
O24        In311   2.211       .  S
C25          C65   1.435       .  S
O27        In311   2.212       .  S
In28         O30   2.211       .  S
In28         O39   2.212       .  S
In28         O33   2.260       .  S
In28         O36   2.262       .  S
In28         O40   2.211       .  S
In28        O179   2.262       .  S
In28        O183   2.261   1_545  S
In28        O185   2.212   1_545  S
C29          C60   1.435       .  S
C29          O35   1.266       .  A
C29          O37   1.260       .  A
O30          C38   1.260       .  A
O31        In176   2.261       .  S
O31         C186   1.266       .  A
C32          C62   1.435       .  S
C32          O39   1.260       .  A
C32          O33   1.266       .  A
C34          C55   1.435   1_545  S
C34          O36   1.266       .  A
C34          O40   1.260       .  A
O35        In176   2.262       .  S
O37        In176   2.211       .  S
C38          C58   1.435       .  S
C38         O179   1.266       .  A
N41          C69   1.405   1_655  S
N41          C42   1.351   1_655  A
N41         C341   1.351       .  A
C42          C43   1.380       .  A
C42         C205   1.440       .  S
C43         C340   1.377   1_455  A
C43          H46   1.082       .  S
C44          C45   1.380       .  A
C44         C339   1.377       .  A
C44          H47   1.082       .  S
C45         N337   1.351       .  A
C45          C56   1.440       .  S
N48          C63   1.405       .  S
N48          C52   1.351       .  A
N48          C49   1.351       .  A
C49          C50   1.380       .  A
C49          C61   1.440       .  S
C50          C51   1.377       .  A
C50          H53   1.082       .  S
C51          C52   1.381       .  A
C51          H54   1.082       .  S
C52          C59   1.440       .  S
C55         C204   1.205       .  T
C56         C203   1.205       .  T
C57         C190   1.440       .  S
C57          C58   1.205       .  T
C59          C60   1.205       .  T
C61          C62   1.205       .  T
C63          C64   1.206       .  T
C65          C66   1.205       .  T
C67          C68   1.205       .  T
C69         C144   1.206   1_554  T
C70         C143   1.206       .  T
C71         C298   1.440       .  S
C71          C72   1.205       .  T
C73          C74   1.205       .  T
N75         C144   1.405       .  S
N75         C375   1.351       .  A
N75         C520   1.351       .  A
C76         N519   1.351       .  A
C76          C77   1.381       .  A
C76         C441   1.440       .  S
C77         C226   1.377   1_545  A
C77          H80   1.082       .  S
C78         C225   1.377       .  A
C78          C79   1.381       .  A
C78          H81   1.082       .  S
C79         N371   1.351       .  A
C79         C147   1.440       .  S
N82         C138   1.405       .  S
N82          C86   1.351       .  A
N82          C83   1.351       .  A
C83          C84   1.380       .  A
C83         C141   1.440       .  S
C84          C85   1.377       .  A
C84          H87   1.082       .  S
C85          C86   1.381       .  A
C85          H88   1.082       .  S
C86         C140   1.440       .  S
In89         O91   2.211   1_655  S
In89         O92   2.262   1_655  S
In89        O100   2.212       .  S
In89        O390   2.260       .  S
In89         O96   2.261   1_655  S
In89        O393   2.262       .  S
In89        O394   2.211   1_655  S
In89        O397   2.211       .  S
C90         C148   1.435       .  S
C90         O392   1.266       .  A
C90          O98   1.260       .  A
O91          C99   1.260       .  A
O92          C99   1.266       .  A
C93         C146   1.435       .  S
C93         O100   1.260       .  A
C93         O390   1.266       .  A
O94        In385   2.261       .  S
O94         C389   1.266       .  A
C95         C142   1.435       .  S
C95          O97   1.266       .  A
C95         O101   1.260       .  A
O96         C386   1.266       .  A
O97        In385   2.261       .  S
O98        In385   2.211       .  S
C99         C139   1.435       .  S
O101       In385   2.212       .  S
In102       O104   2.211       .  S
In102       O253   2.262       .  S
In102       O113   2.212       .  S
In102       O107   2.260       .  S
In102       O257   2.261   1_545  S
In102       O110   2.262       .  S
In102       O259   2.212   1_545  S
In102       O114   2.211       .  S
C103        C134   1.435       .  S
C103        O109   1.266       .  A
C103        O111   1.260       .  A
O104        C112   1.260       .  A
O105       In250   2.261       .  S
O105        C260   1.266       .  A
C106        C136   1.435       .  S
C106        O113   1.260       .  A
C106        O107   1.266       .  A
C108        C129   1.435   1_545  S
C108        O110   1.266       .  A
C108        O114   1.260       .  A
O109       In250   2.262       .  S
O111       In250   2.211       .  S
C112        C132   1.435       .  S
C112        O253   1.266       .  A
N115        C143   1.405   1_655  S
N115        C415   1.351       .  A
N115        C116   1.351   1_655  A
C116        C117   1.380       .  A
C116        C279   1.440       .  S
C117        C414   1.377   1_455  A
C117        H120   1.082       .  S
C118        C413   1.377       .  A
C118        C119   1.380       .  A
C118        H121   1.082       .  S
C119        N411   1.351       .  A
C119        C130   1.440       .  S
N122        C137   1.405       .  S
N122        C126   1.351       .  A
N122        C123   1.351       .  A
C123        C124   1.380       .  A
C123        C135   1.440       .  S
C124        C125   1.377       .  A
C124        H127   1.082       .  S
C125        C126   1.381       .  A
C125        H128   1.082       .  S
C126        C133   1.440       .  S
C129        C278   1.205       .  T
C130        C277   1.205       .  T
C131        C264   1.440       .  S
C131        C132   1.205       .  T
C133        C134   1.205       .  T
C135        C136   1.205       .  T
C137        C138   1.206       .  T
C139        C140   1.205       .  T
C141        C142   1.205       .  T
C145        C372   1.440       .  S
C145        C146   1.205       .  T
C147        C148   1.205       .  T
N149        C218   1.405       .  S
N149        C449   1.351   1_545  A
N149        C298   1.351       .  A
C150        N297   1.351       .  A
C150        C151   1.380       .  A
C150        C515   1.440       .  S
C151        H154   1.082       .  S
C152        C153   1.380       .  A
C152        H155   1.082       .  S
C153        N445   1.351   1_565  A
C153        C221   1.440       .  S
N156        C212   1.405       .  S
N156        C160   1.351       .  A
N156        C157   1.351       .  A
C157        C158   1.381       .  A
C157        C215   1.440       .  S
C158        C159   1.377       .  A
C158        H161   1.082       .  S
C159        C160   1.380       .  A
C159        H162   1.082       .  S
C160        C214   1.440       .  S
In163       O165   2.212   1_655  S
In163       O166   2.261   1_655  S
In163       O174   2.211   1_655  S
In163       O464   2.261   1_655  S
In163       O170   2.262       .  S
In163       O467   2.261       .  S
In163       O468   2.211       .  S
In163       O471   2.212       .  S
C164        C222   1.435       .  S
C164        O466   1.266       .  A
C164        O172   1.260       .  A
O165        C173   1.260       .  A
O166        C173   1.266       .  A
C167        C220   1.435       .  S
C167        O174   1.260       .  A
C167        O464   1.266       .  A
O168       In459   2.260       .  S
O168        C463   1.266       .  A
C169        C216   1.435       .  S
C169        O171   1.266       .  A
C169        O175   1.260       .  A
O170        C460   1.266       .  A
O171       In459   2.262       .  S
O172       In459   2.211       .  S
C173        C213   1.435       .  S
O175       In459   2.211       .  S
In176       O178   2.212       .  S
In176       O187   2.211       .  S
In176       O181   2.262       .  S
In176       O184   2.261       .  S
In176       O188   2.212       .  S
C177        C208   1.434       .  S
C177        O183   1.266       .  A
C177        O185   1.260       .  A
O178        C186   1.260       .  A
C180        C210   1.435       .  S
C180        O187   1.260       .  A
C180        O181   1.266       .  A
C182        C203   1.435       .  S
C182        O184   1.266       .  A
C182        O188   1.260       .  A
C186        C206   1.435       .  S
N189        C217   1.405       .  S
N189        C489   1.351       .  A
N189        C190   1.351   1_655  A
C190        C191   1.381       .  A
C191        C488   1.377   1_455  A
C191        H194   1.082       .  S
C192        C487   1.377       .  A
C192        C193   1.381       .  A
C192        H195   1.082       .  S
C193        N485   1.351       .  A
C193        C204   1.440       .  S
N196        C211   1.405       .  S
N196        C200   1.351       .  A
N196        C197   1.351       .  A
C197        C198   1.381       .  A
C197        C209   1.440       .  S
C198        C199   1.377       .  A
C198        H201   1.082       .  S
C199        C200   1.380       .  A
C199        H202   1.082       .  S
C200        C207   1.440       .  S
C205        C206   1.205       .  T
C207        C208   1.205       .  T
C209        C210   1.205       .  T
C211        C212   1.206       .  T
C213        C214   1.205       .  T
C215        C216   1.205       .  T
C217        C292   1.206   1_554  T
C218        C291   1.206       .  T
C219        C446   1.440       .  S
C219        C220   1.205       .  T
C221        C222   1.205       .  T
N223        C292   1.405       .  S
N223        C523   1.351   1_545  A
N223        C372   1.351       .  A
C224        N371   1.351       .  A
C224        C225   1.380       .  A
C224        C589   1.440       .  S
C225        H228   1.082       .  S
C226        C227   1.380       .  A
C226        H229   1.082       .  S
C227        N519   1.351   1_565  A
C227        C295   1.440       .  S
N230        C286   1.405       .  S
N230        C234   1.351       .  A
N230        C231   1.351       .  A
C231        C232   1.381       .  A
C231        C289   1.440       .  S
C232        C233   1.377       .  A
C232        H235   1.082       .  S
C233        C234   1.380       .  A
C233        H236   1.082       .  S
C234        C288   1.440       .  S
In237       O239   2.212   1_655  S
In237       O240   2.261   1_655  S
In237       O248   2.211   1_655  S
In237       O538   2.261   1_655  S
In237       O244   2.262       .  S
In237       O541   2.261       .  S
In237       O542   2.211       .  S
In237       O545   2.212       .  S
C238        C296   1.435       .  S
C238        O540   1.266       .  A
C238        O246   1.260       .  A
O239        C247   1.260       .  A
O240        C247   1.266       .  A
C241        C294   1.435       .  S
C241        O248   1.260       .  A
C241        O538   1.266       .  A
O242       In533   2.260       .  S
O242        C537   1.266       .  A
C243        C290   1.435       .  S
C243        O245   1.266       .  A
C243        O249   1.260       .  A
O244        C534   1.266       .  A
O245       In533   2.262       .  S
O246       In533   2.211       .  S
C247        C287   1.435       .  S
O249       In533   2.211       .  S
In250       O252   2.212       .  S
In250       O261   2.211       .  S
In250       O255   2.262       .  S
In250       O258   2.261       .  S
In250       O262   2.212       .  S
C251        C282   1.434       .  S
C251        O257   1.266       .  A
C251        O259   1.260       .  A
O252        C260   1.260       .  A
C254        C284   1.435       .  S
C254        O261   1.260       .  A
C254        O255   1.266       .  A
C256        C277   1.435       .  S
C256        O258   1.266       .  A
C256        O262   1.260       .  A
C260        C280   1.435       .  S
N263        C291   1.405       .  S
N263        C563   1.351       .  A
N263        C264   1.351   1_655  A
C264        C265   1.381       .  A
C265        C562   1.377   1_455  A
C265        H268   1.082       .  S
C266        C561   1.377       .  A
C266        C267   1.381       .  A
C266        H269   1.082       .  S
C267        N559   1.351       .  A
C267        C278   1.440       .  S
N270        C285   1.405       .  S
N270        C274   1.351       .  A
N270        C271   1.351       .  A
C271        C272   1.381       .  A
C271        C283   1.440       .  S
C272        C273   1.377       .  A
C272        H275   1.082       .  S
C273        C274   1.380       .  A
C273        H276   1.082       .  S
C274        C281   1.440       .  S
C279        C280   1.205       .  T
C281        C282   1.205       .  T
C283        C284   1.205       .  T
C285        C286   1.206       .  T
C287        C288   1.205       .  T
C289        C290   1.205       .  T
C293        C520   1.440       .  S
C293        C294   1.205       .  T
C295        C296   1.205       .  T
N297        C366   1.405       .  S
C298        C299   1.380       .  A
C299        C448   1.377   1_545  A
C299        H302   1.082       .  S
C300        C447   1.377       .  A
C300        C301   1.380       .  A
C300        H303   1.082       .  S
C301        C369   1.440       .  S
N304        C360   1.405       .  S
N304        C308   1.351       .  A
N304        C305   1.351       .  A
C305        C306   1.381       .  A
C305        C363   1.440       .  S
C306        C307   1.377       .  A
C306        H309   1.082       .  S
C307        C308   1.380       .  A
C307        H310   1.082       .  S
C308        C362   1.440       .  S
In311       O313   2.212       .  S
In311       O314   2.261       .  S
In311       O322   2.211       .  S
In311       O318   2.262       .  S
C312        C370   1.435       .  S
C312        O320   1.260       .  A
O313        C321   1.260       .  A
O314        C321   1.266       .  A
C315        C368   1.435       .  S
C315        O322   1.260       .  A
C317        C364   1.435       .  S
C317        O319   1.266       .  A
C317        O323   1.260       .  A
C321        C361   1.435       .  S
In324       O326   2.212       .  S
In324       O475   2.261       .  S
In324       O335   2.211       .  S
In324       O329   2.262       .  S
In324       O479   2.262   1_545  S
In324       O332   2.261       .  S
In324       O481   2.211   1_545  S
In324       O336   2.212       .  S
C325        C356   1.434       .  S
C325        O331   1.266       .  A
C325        O333   1.260       .  A
O326        C334   1.260   1_545  A
O327       In472   2.262       .  S
O327        C482   1.266       .  A
C328        C358   1.435       .  S
C328        O335   1.260       .  A
C328        O329   1.266       .  A
C330        C351   1.435       .  S
C330        O332   1.266       .  A
C330        O336   1.260       .  A
O331       In472   2.261       .  S
O333       In472   2.212       .  S
C334        C354   1.435       .  S
C334        O475   1.266   1_565  A
N337        C365   1.405       .  S
N337        C338   1.351       .  A
C338        C339   1.381       .  A
C338        C501   1.440       .  S
C339        H342   1.082       .  S
C340        C341   1.381       .  A
C340        H343   1.082       .  S
C341        C352   1.440       .  S
N344        C359   1.405       .  S
N344        C348   1.351       .  A
N344        C345   1.351       .  A
C345        C346   1.381       .  A
C345        C357   1.440       .  S
C346        C347   1.377       .  A
C346        H349   1.082       .  S
C347        C348   1.380       .  A
C347        H350   1.082       .  S
C348        C355   1.440       .  S
C351        C500   1.205       .  T
C352        C499   1.205       .  T
C353        C486   1.440       .  S
C353        C354   1.205       .  T
C355        C356   1.205       .  T
C357        C358   1.205       .  T
C359        C360   1.206       .  T
C361        C362   1.205       .  T
C363        C364   1.205       .  T
C365        C440   1.206   1_554  T
C366        C439   1.206       .  T
C367        C368   1.205       .  T
C369        C370   1.205       .  T
N371        C440   1.405       .  S
C372        C373   1.380       .  A
C373        C522   1.377   1_545  A
C373        H376   1.082       .  S
C374        C521   1.377       .  A
C374        C375   1.380       .  A
C374        H377   1.082       .  S
C375        C443   1.440       .  S
N378        C434   1.405       .  S
N378        C382   1.351       .  A
N378        C379   1.351       .  A
C379        C380   1.381       .  A
C379        C437   1.440       .  S
C380        C381   1.377       .  A
C380        H383   1.082       .  S
C381        C382   1.380       .  A
C381        H384   1.082       .  S
C382        C436   1.440       .  S
In385       O387   2.212       .  S
In385       O388   2.261       .  S
In385       O396   2.211       .  S
In385       O392   2.262       .  S
C386        C444   1.435       .  S
C386        O394   1.260       .  A
O387        C395   1.260       .  A
O388        C395   1.266       .  A
C389        C442   1.435       .  S
C389        O396   1.260       .  A
C391        C438   1.435       .  S
C391        O393   1.266       .  A
C391        O397   1.260       .  A
C395        C435   1.435       .  S
In398       O400   2.212       .  S
In398       O549   2.261       .  S
In398       O409   2.211       .  S
In398       O403   2.262       .  S
In398       O553   2.262   1_545  S
In398       O406   2.261       .  S
In398       O555   2.211   1_545  S
In398       O410   2.212       .  S
C399        C430   1.434       .  S
C399        O405   1.266       .  A
C399        O407   1.260       .  A
O400        C408   1.260   1_545  A
O401       In546   2.262       .  S
O401        C556   1.266       .  A
C402        C432   1.435       .  S
C402        O409   1.260       .  A
C402        O403   1.266       .  A
C404        C425   1.435       .  S
C404        O406   1.266       .  A
C404        O410   1.260       .  A
O405       In546   2.261       .  S
O407       In546   2.212       .  S
C408        C428   1.435       .  S
C408        O549   1.266   1_565  A
N411        C439   1.405       .  S
N411        C412   1.351       .  A
C412        C413   1.381       .  A
C412        C575   1.440       .  S
C413        H416   1.082       .  S
C414        C415   1.381       .  A
C414        H417   1.082       .  S
C415        C426   1.440       .  S
N418        C433   1.405       .  S
N418        C422   1.351       .  A
N418        C419   1.351       .  A
C419        C420   1.381       .  A
C419        C431   1.440       .  S
C420        C421   1.377       .  A
C420        H423   1.082       .  S
C421        C422   1.380       .  A
C421        H424   1.082       .  S
C422        C429   1.440       .  S
C425        C574   1.205       .  T
C426        C573   1.205       .  T
C427        C560   1.440       .  S
C427        C428   1.205       .  T
C429        C430   1.205       .  T
C431        C432   1.205       .  T
C433        C434   1.206       .  T
C435        C436   1.205       .  T
C437        C438   1.205       .  T
C441        C442   1.205       .  T
C443        C444   1.205       .  T
N445        C514   1.405       .  S
C446        C447   1.381       .  A
C447        H450   1.082       .  S
C448        C449   1.381       .  A
C448        H451   1.082       .  S
C449        C517   1.440       .  S
N452        C508   1.405       .  S
N452        C456   1.351       .  A
N452        C453   1.351       .  A
C453        C454   1.380       .  A
C453        C511   1.440       .  S
C454        C455   1.377       .  A
C454        H457   1.082       .  S
C455        C456   1.381       .  A
C455        H458   1.082       .  S
C456        C510   1.440       .  S
In459       O461   2.211       .  S
In459       O462   2.262       .  S
In459       O470   2.212       .  S
In459       O466   2.261       .  S
C460        C518   1.435       .  S
C460        O468   1.260       .  A
O461        C469   1.260       .  A
O462        C469   1.266       .  A
C463        C516   1.435       .  S
C463        O470   1.260       .  A
C465        C512   1.435       .  S
C465        O467   1.266       .  A
C465        O471   1.260       .  A
C469        C509   1.435       .  S
In472       O474   2.211       .  S
In472       O483   2.212       .  S
In472       O477   2.260       .  S
In472       O480   2.262       .  S
In472       O484   2.211       .  S
C473        C504   1.435       .  S
C473        O479   1.266       .  A
C473        O481   1.260       .  A
O474        C482   1.260       .  A
C476        C506   1.435       .  S
C476        O483   1.260       .  A
C476        O477   1.266       .  A
C478        C499   1.435       .  S
C478        O480   1.266       .  A
C478        O484   1.260       .  A
C482        C502   1.435       .  S
N485        C513   1.405       .  S
N485        C486   1.351       .  A
C486        C487   1.380       .  A
C487        H490   1.082       .  S
C488        C489   1.380       .  A
C488        H491   1.082       .  S
C489        C500   1.440       .  S
N492        C507   1.405       .  S
N492        C496   1.351       .  A
N492        C493   1.351       .  A
C493        C494   1.380       .  A
C493        C505   1.440       .  S
C494        C495   1.377       .  A
C494        H497   1.082       .  S
C495        C496   1.381       .  A
C495        H498   1.082       .  S
C496        C503   1.440       .  S
C501        C502   1.205       .  T
C503        C504   1.205       .  T
C505        C506   1.205       .  T
C507        C508   1.206       .  T
C509        C510   1.205       .  T
C511        C512   1.205       .  T
C513        C588   1.206   1_564  T
C514        C587   1.206   1_545  T
C515        C516   1.205       .  T
C517        C518   1.205       .  T
N519        C588   1.405       .  S
C520        C521   1.381       .  A
C521        H524   1.082       .  S
C522        C523   1.381       .  A
C522        H525   1.082       .  S
C523        C591   1.440       .  S
N526        C582   1.405       .  S
N526        C530   1.351       .  A
N526        C527   1.351       .  A
C527        C528   1.380       .  A
C527        C585   1.440       .  S
C528        C529   1.377       .  A
C528        H531   1.082       .  S
C529        C530   1.381       .  A
C529        H532   1.082       .  S
C530        C584   1.440       .  S
In533       O535   2.211       .  S
In533       O536   2.262       .  S
In533       O544   2.212       .  S
In533       O540   2.261       .  S
C534        C592   1.435       .  S
C534        O542   1.260       .  A
O535        C543   1.260       .  A
O536        C543   1.266       .  A
C537        C590   1.435       .  S
C537        O544   1.260       .  A
C539        C586   1.435       .  S
C539        O541   1.266       .  A
C539        O545   1.260       .  A
C543        C583   1.435       .  S
In546       O548   2.211       .  S
In546       O557   2.212       .  S
In546       O551   2.260       .  S
In546       O554   2.262       .  S
In546       O558   2.211       .  S
C547        C578   1.435       .  S
C547        O553   1.266       .  A
C547        O555   1.260       .  A
O548        C556   1.260       .  A
C550        C580   1.435       .  S
C550        O557   1.260       .  A
C550        O551   1.266       .  A
C552        C573   1.435       .  S
C552        O554   1.266       .  A
C552        O558   1.260       .  A
C556        C576   1.435       .  S
N559        C587   1.405       .  S
N559        C560   1.351       .  A
C560        C561   1.380       .  A
C561        H564   1.082       .  S
C562        C563   1.380       .  A
C562        H565   1.082       .  S
C563        C574   1.440       .  S
N566        C581   1.405       .  S
N566        C570   1.351       .  A
N566        C567   1.351       .  A
C567        C568   1.380       .  A
C567        C579   1.440       .  S
C568        C569   1.377       .  A
C568        H571   1.082       .  S
C569        C570   1.381       .  A
C569        H572   1.082       .  S
C570        C577   1.440       .  S
C575        C576   1.205       .  T
C577        C578   1.205       .  T
C579        C580   1.205       .  T
C581        C582   1.206       .  T
C583        C584   1.205       .  T
C585        C586   1.205       .  T
C589        C590   1.205       .  T
C591        C592   1.205       .  T
