geometry optimzed in LAMMPS
_audit_creation_date              2020-12-01 
_audit_creation_method            'lammps2cif' 
_symmetry_space_group_name_H-M    'P1' 
_symmetry_Int_Tables_number       1 
_symmetry_cell_setting            triclinic 
loop_ 
_symmetry_equiv_pos_as_xyz 
  x,y,z 
_cell_length_a                    29.08580777 
_cell_length_b                    29.10960994808306 
_cell_length_c                    29.16592914644243 
_cell_angle_alpha                 90.02769753280369 
_cell_angle_beta                  89.8193475313329 
_cell_angle_gamma                 90.26805318034889 
loop_ 
_atom_site_label 
_atom_site_type_symbol 
_atom_site_fract_x 
_atom_site_fract_y 
_atom_site_fract_z 
_atom_site_charge 
O1          O  0.41783292  0.41138567  0.90995627    -0.75400
O2          O  0.45937732  0.45319011  0.85820964    -0.54400
C3          C  0.42852592  0.42327888  0.86864970     0.78300
O4          O  0.41738164  0.59281462  0.06713320    -0.60000
O5          O  0.45857933  0.55238642  0.11972227    -0.53100
C6          C  0.42856094  0.58257563  0.10855517     0.70300
O7          O  0.41649219  0.59144330  0.91246159    -0.74600
O8          O  0.45941731  0.55224760  0.86004042    -0.55200
C9          C  0.42815510  0.58135762  0.87108489     0.76300
O10         O  0.41796849  0.40683819  0.06553480    -0.59700
O11         O  0.45642171  0.45013720  0.11827652    -0.52900
C12         C  0.42735137  0.41869948  0.10709773     0.72900
Zr13       Zr  0.44035174  0.43173878  0.98845189     2.54700
O14         O  0.35668774  0.43249234  0.98816768    -0.80300
O15         O  0.44459412  0.34820742  0.98592856    -0.93700
Zr16       Zr  0.43856448  0.56854629  0.98972368     2.64700
O17         O  0.35524864  0.56088509  0.98833822    -0.98700
O18         O  0.43345545  0.65198421  0.99054594    -0.80700
O19         O  0.43895854  0.50048444  0.94494468    -0.84100
O20         O  0.43809003  0.49991083  0.03336986    -2.18800
O21         O  0.59500569  0.40799774  0.06819404    -0.67500
O22         O  0.55424730  0.44907144  0.12074201    -0.52100
C23         C  0.58337017  0.41789256  0.10966937     0.71300
O24         O  0.60191682  0.59061390  0.91217846    -0.60400
O25         O  0.55897169  0.55185102  0.85978729    -0.52400
C26         C  0.59086330  0.58033233  0.87060129     0.73100
O27         O  0.59766801  0.59443840  0.06718607    -0.71800
O28         O  0.55860805  0.55107001  0.11971312    -0.50500
C29         C  0.58833088  0.58203071  0.10858402     0.74500
O30         O  0.60254901  0.41253820  0.91468141    -0.67100
O31         O  0.56123477  0.45235568  0.86187140    -0.54300
C32         C  0.59213014  0.42305971  0.87328192     0.72800
Zr33       Zr  0.57721261  0.43437080  0.99083724     2.77500
O34         O  0.66069156  0.43959625  0.99528688    -0.97900
O35         O  0.57902105  0.35078942  0.98790442    -0.78700
Zr36       Zr  0.57554097  0.57152685  0.98980807     2.70100
O37         O  0.65897201  0.57783345  0.99177116    -0.79900
O38         O  0.56725629  0.65458370  0.98470860    -0.99000
Zr39       Zr  0.50908770  0.50194558  0.90310745     2.21500
Zr40       Zr  0.50737416  0.50129905  0.07668853     2.11100
O41         O  0.57737300  0.50301290  0.03429395    -2.47700
O42         O  0.57819372  0.50275589  0.94632797    -0.79700
O43         O  0.50808859  0.43198422  0.03371151    -0.71900
O44         O  0.50738744  0.57155204  0.94580345    -2.32900
O45         O  0.50954334  0.43215077  0.94546112    -2.29100
O46         O  0.50683765  0.57100266  0.03404738    -0.73700
H47         H  0.41150454  0.49939298  0.05331575     0.78300
H48         H  0.50731925  0.59807311  0.92589373     0.79400
H49         H  0.60357436  0.50327048  0.05453814     0.81600
H50         H  0.51015777  0.40593744  0.92524558     0.79200
H51         H  0.46234590  0.66228469  0.00526559     0.42300
H52         H  0.55544671  0.66400583  0.01514227     0.41200
H53         H  0.66975311  0.54564308  0.99269972     0.40900
H54         H  0.66699931  0.45783876  0.02324168     0.38800
H55         H  0.55186351  0.34203314  0.96942344     0.42000
H56         H  0.45642843  0.34084890  0.95491786     0.36800
H57         H  0.34864804  0.45750840  0.96667548     0.42900
H58         H  0.34759734  0.54042958  0.01438157     0.39300
H59         H  0.67061135  0.40810482  0.00321688     0.44200
H60         H  0.41212468  0.33787870  0.98546950     0.42900
H61         H  0.34381002  0.59149308  0.99763294     0.43100
H62         H  0.59920371  0.66645831  0.98375629     0.43400
O63         O  0.42516119  0.92313710  0.40216499    -0.75400
O64         O  0.46551431  0.87079378  0.44374324    -0.54400
C65         C  0.43512400  0.88174205  0.41386839     0.78300
O66         O  0.60966720  0.07804976  0.40118749    -0.60000
O67         O  0.56835946  0.13099411  0.44145969    -0.53100
C68         C  0.59942567  0.11964016  0.41232565     0.70300
O69         O  0.60172981  0.92197998  0.39690005    -0.74600
O70         O  0.56372381  0.86971968  0.44110052    -0.55200
C71         C  0.59123752  0.88039847  0.40829110     0.76300
O72         O  0.42746430  0.07728609  0.39727280    -0.59700
O73         O  0.46694399  0.13073564  0.43894381    -0.52900
C74         C  0.43780856  0.11897565  0.40792080     0.72900
Zr75       Zr  0.44828340  0.00065704  0.42353790     2.54700
O76         O  0.44808209  0.99609511  0.34017521    -0.80300
O77         O  0.36496715  0.00457472  0.43044170    -0.93700
Zr78       Zr  0.58513786  0.00034972  0.42239354     2.64700
O79         O  0.58554708  0.00112507  0.33886408    -0.98700
O80         O  0.66864301  0.99685587  0.42642991    -0.80700
O81         O  0.51642495  0.95637610  0.42288882    -0.84100
O82         O  0.51695440  0.04466712  0.42108182    -2.18800
O83         O  0.42626683  0.07922594  0.58258668    -0.67500
O84         O  0.46590912  0.13135103  0.53931686    -0.52100
C85         C  0.43673604  0.12059974  0.57075890     0.71300
O86         O  0.60704244  0.92588828  0.58494402    -0.60400
O87         O  0.56726587  0.87275452  0.54337655    -0.52400
C88         C  0.59697190  0.88419005  0.57390708     0.73100
O89         O  0.60807023  0.08051121  0.58112928    -0.71800
O90         O  0.56612688  0.13228139  0.54036685    -0.50500
C91         C  0.59614307  0.12180417  0.57083082     0.74500
O92         O  0.42646998  0.92486133  0.58486465    -0.67100
O93         O  0.46683104  0.87184115  0.54399335    -0.54300
C94         C  0.43721640  0.88324475  0.57467310     0.72800
Zr95       Zr  0.44903603  0.00173356  0.56019184     2.77500
O96         O  0.45419354  0.99961047  0.64335514    -0.97900
O97         O  0.36540350  0.99920326  0.56127359    -0.78700
Zr98       Zr  0.58601327  0.00255014  0.55865379     2.70100
O99         O  0.58696860  0.00519932  0.64202568    -0.79900
O100        O  0.66940390  0.00188553  0.55119606    -0.99000
Zr101      Zr  0.51662097  0.91420907  0.49257763     2.21500
Zr102      Zr  0.51674482  0.08834186  0.49005476     2.11100
O103        O  0.51741515  0.04621330  0.55986172    -2.47700
O104        O  0.51750774  0.95794674  0.56117555    -0.79700
O105        O  0.44717720  0.04545405  0.49141908    -0.71900
O106        O  0.58655572  0.95695339  0.49114151    -2.32900
O107        O  0.44734132  0.95713514  0.49231109    -2.29100
O108        O  0.58632965  0.04589660  0.48989266    -0.73700
H109        H  0.51719312  0.06431569  0.39433192     0.78300
H110        H  0.61304098  0.93673193  0.49104166     0.79400
H111        H  0.51751038  0.06656516  0.58615849     0.81600
H112        H  0.42042888  0.93689460  0.49289728     0.79200
H113        H  0.67896300  0.99674303  0.39405526     0.42300
H114        H  0.67710165  0.03109688  0.53550334     0.41200
H115        H  0.55851970  0.98887512  0.65140940     0.40900
H116        H  0.47565673  0.02482163  0.65137359     0.38800
H117        H  0.35612527  0.01736817  0.53418549     0.42000
H118        H  0.35652154  0.97876606  0.45094149     0.36800
H119        H  0.47992590  0.98732509  0.33198385     0.42900
H120        H  0.57390320  0.03182885  0.33023526     0.39300
H121        H  0.42370742  0.01008268  0.65417602     0.44200
H122        H  0.35341794  0.99521291  0.39992968     0.42900
H123        H  0.61849235  0.00182077  0.33026526     0.43100
H124        H  0.68078426  0.00607292  0.58288854     0.43400
O125        O  0.93515170  0.59505437  0.39878641    -0.75400
O126        O  0.88239564  0.55130062  0.43623398    -0.54400
C127        C  0.89326220  0.58296371  0.40770105     0.78300
O128        O  0.08944843  0.41017207  0.39597442    -0.60000
O129        O  0.14245035  0.45016482  0.43730158    -0.53100
C130        C  0.13122715  0.42026669  0.40675952     0.70300
O131        O  0.93433874  0.41379793  0.39437706    -0.74600
O132        O  0.88165007  0.45409310  0.43588282    -0.55200
C133        C  0.89282523  0.42440369  0.40526928     0.76300
O134        O  0.09161196  0.59500620  0.40201456    -0.59700
O135        O  0.14266577  0.54980799  0.43972780    -0.52900
C136        C  0.13286334  0.58247375  0.41203122     0.72900
Zr137      Zr  0.01305240  0.57246148  0.42269756     2.54700
O138        O  0.01365306  0.58081020  0.33972008    -0.80300
O139        O  0.01478898  0.65538995  0.43401101    -0.93700
Zr140      Zr  0.01195859  0.43443977  0.41819327     2.64700
O141        O  0.01185357  0.43486999  0.33474642    -0.98700
O142        O  0.01198938  0.35081381  0.41947279    -0.80700
O143        O  0.96896352  0.50381504  0.41836036    -0.84100
O144        O  0.05616378  0.50306194  0.41898488    -2.18800
O145        O  0.08955685  0.59251056  0.57906706    -0.67500
O146        O  0.14140750  0.55033969  0.53852844    -0.52100
C147        C  0.13098359  0.58108197  0.56839344     0.71300
O148        O  0.93052967  0.41470876  0.57983805    -0.60400
O149        O  0.87934519  0.45506659  0.53671227    -0.52400
C150        C  0.88939221  0.42658148  0.56859414     0.73100
O151        O  0.08678331  0.40436173  0.57620337    -0.71800
O152        O  0.14017281  0.44700752  0.53745070    -0.50500
C153        C  0.12866804  0.41513590  0.56580905     0.74500
O154        O  0.93431144  0.58708502  0.58395667    -0.67100
O155        O  0.88159355  0.55218510  0.53774167    -0.54300
C156        C  0.89273509  0.57868893  0.57125181     0.72800
Zr157      Zr  0.01201739  0.56693485  0.55918213     2.77500
O158        O  0.01418076  0.55573623  0.64190236    -0.97900
O159        O  0.00866553  0.65014895  0.56658872    -0.78700
Zr160      Zr  0.00957361  0.43044022  0.55464115     2.70100
O161        O  0.01224186  0.42814556  0.63800035    -0.79900
O162        O  0.99978892  0.34772293  0.54671726    -0.99000
Zr163      Zr  0.92501557  0.50258197  0.48710644     2.21500
Zr164      Zr  0.09869632  0.49948618  0.48849312     2.11100
O165        O  0.05532259  0.49806889  0.55780748    -2.47700
O166        O  0.96656748  0.49936280  0.55692524    -0.79700
O167        O  0.05689377  0.56953198  0.49108301    -0.71900
O168        O  0.96641033  0.43219098  0.48584569    -2.32900
O169        O  0.96831330  0.57183690  0.49066619    -2.29100
O170        O  0.05509649  0.43041348  0.48682785    -0.73700
H171        H  0.07635744  0.50365626  0.39262860     0.78300
H172        H  0.94558587  0.40591225  0.48510409     0.79400
H173        H  0.07530903  0.49697439  0.58393726     0.81600
H174        H  0.94835529  0.59832308  0.49161097     0.79200
H175        H  0.03574708  0.34262594  0.44225030     0.42300
H176        H  0.02878922  0.33706046  0.53251677     0.41200
H177        H  0.00669931  0.39550950  0.64587947     0.40900
H178        H  0.99249038  0.53003063  0.64761474     0.38800
H179        H  0.03036948  0.66183206  0.54307481     0.42000
H180        H  0.99535902  0.66098651  0.46134862     0.36800
H181        H  0.99342605  0.55574708  0.32860833     0.42900
H182        H  0.03820436  0.45471230  0.32607121     0.39300
H183        H  0.04484485  0.54261420  0.64820950     0.44200
H184        H  0.99683394  0.66795029  0.40814654     0.42900
H185        H  0.02147361  0.40346078  0.32599911     0.43100
H186        H  0.00080674  0.33582720  0.57848572     0.43400
C187        C  0.74038485  0.33438571  0.31575429     0.03000
C188        C  0.71969052  0.35139851  0.27588470    -0.13200
C189        C  0.68101233  0.32934819  0.25731162     0.00500
C190        C  0.66342768  0.28979520  0.27861867    -0.11700
C191        C  0.68491543  0.27146685  0.31743692     0.03000
C192        C  0.72332804  0.29402375  0.33585404    -0.11100
H193        H  0.73286792  0.38247782  0.26006500     0.08600
H194        H  0.63242793  0.27382935  0.26545195     0.06100
H195        H  0.73940199  0.28068478  0.36655218     0.05900
C196        C  0.74660841  0.67724800  0.31215272     0.03000
C197        C  0.72672151  0.65670174  0.27343523    -0.13200
C198        C  0.68613031  0.67449778  0.25456991     0.00500
C199        C  0.66543906  0.71273490  0.27520512    -0.11700
C200        C  0.68563472  0.73402711  0.31322204     0.03000
C201        C  0.72622220  0.71618122  0.33171669    -0.11100
H202        H  0.74206306  0.62608332  0.25891981     0.08600
H203        H  0.63293544  0.72537481  0.26235236     0.06100
H204        H  0.74072354  0.73126162  0.36246793     0.05900
C205        C  0.68148712  0.33296603  0.72211626     0.03000
C206        C  0.66512844  0.29139339  0.70434541    -0.13200
C207        C  0.68501991  0.27249146  0.66488071     0.00500
C208        C  0.72225595  0.29508193  0.64398308    -0.11700
C209        C  0.73853038  0.33711943  0.66138488     0.03000
C210        C  0.71833088  0.35558503  0.70089406    -0.11100
H211        H  0.63597197  0.27449079  0.72045413     0.08600
H212        H  0.73744050  0.28083241  0.61316455     0.06100
H213        H  0.73006707  0.38839829  0.71414835     0.05900
C214        C  0.34068751  0.73504473  0.31992238     0.03000
C215        C  0.36054497  0.71595333  0.28042637    -0.13200
C216        C  0.34276567  0.67526019  0.26146938     0.00500
C217        C  0.30356357  0.65494994  0.28124358    -0.11700
C218        C  0.28329201  0.67434722  0.32026150     0.03000
C219        C  0.30203270  0.71407063  0.33963998    -0.11100
H220        H  0.39079228  0.73187071  0.26543052     0.08600
H221        H  0.28974097  0.62326284  0.26729137     0.06100
H222        H  0.28694673  0.72822683  0.37059142     0.05900
C223        C  0.34009538  0.67318109  0.71941763     0.03000
C224        C  0.35783759  0.71449979  0.70225387    -0.13200
C225        C  0.33857019  0.73519793  0.66352955     0.00500
C226        C  0.29926880  0.71565886  0.64335206    -0.11700
C227        C  0.27974028  0.67536834  0.66157039     0.03000
C228        C  0.30059060  0.65409281  0.69934728    -0.11100
H229        H  0.38770338  0.73000681  0.71826038     0.08600
H230        H  0.28511503  0.73058084  0.61245517     0.06100
H231        H  0.28670054  0.62201422  0.71236731     0.05900
C232        C  0.33884109  0.32999967  0.71815034     0.03000
C233        C  0.29832403  0.34691164  0.69833900    -0.13200
C234        C  0.27968488  0.32602519  0.65912531     0.00500
C235        C  0.30222154  0.28820811  0.63961989    -0.11700
C236        C  0.34339947  0.27188191  0.65834339     0.03000
C237        C  0.36140448  0.29275267  0.69768976    -0.11100
H238        H  0.28190869  0.37696309  0.71284457     0.08600
H239        H  0.28818222  0.27203904  0.60920491     0.06100
H240        H  0.39379349  0.28091341  0.71155071     0.05900
C241        C  0.68647409  0.67528096  0.72417471     0.03000
C242        C  0.72378337  0.65377625  0.70266252    -0.13200
C243        C  0.74508945  0.67389536  0.66442559     0.00500
C244        C  0.72927126  0.71644108  0.64842436    -0.11700
C245        C  0.69099768  0.73763864  0.66879140     0.03000
C246        C  0.66990179  0.71698008  0.70691764    -0.11100
H247        H  0.73539048  0.62067832  0.71498211     0.08600
H248        H  0.74550561  0.73217302  0.61880215     0.06100
H249        H  0.63921634  0.73202120  0.72168887     0.05900
C250        C  0.33904848  0.26505490  0.31746409     0.03000
C251        C  0.29715291  0.28207354  0.33438426    -0.13200
C252        C  0.27603700  0.31982484  0.31350558     0.00500
C253        C  0.29561209  0.33874829  0.27367630    -0.11700
C254        C  0.33656553  0.32114266  0.25532705     0.03000
C255        C  0.35833353  0.28461557  0.27766223    -0.11100
H256        H  0.28199754  0.26731855  0.36500353     0.08600
H257        H  0.27978155  0.36840779  0.25786557     0.06100
H258        H  0.39126930  0.27263880  0.26507343     0.05900
C259        C  0.16110912  0.37525826  0.63436122    -0.09300
C260        C  0.16650201  0.38979823  0.58862642     0.06900
C261        C  0.20871365  0.38095071  0.56607790    -0.03100
C262        C  0.24447389  0.35956254  0.58957802    -0.07500
C263        C  0.23957797  0.34646548  0.63556482     0.06000
C264        C  0.19717017  0.35384093  0.65785618    -0.02600
Br265      Br  0.18617150  0.33356874  0.71955084    -0.02200
H266        H  0.12897579  0.38125052  0.65221854     0.09900
H267        H  0.27673925  0.35365701  0.57189474     0.07900
Br268      Br  0.21993773  0.39530525  0.50275357    -0.02700
C269        C  0.16232889  0.64935800  0.61024521    -0.09300
C270        C  0.16932091  0.60497896  0.59226805     0.06900
C271        C  0.21266561  0.58398594  0.59866420    -0.03100
C272        C  0.24790756  0.60793856  0.62073123    -0.07500
C273        C  0.24101613  0.65224376  0.63804947     0.06000
C274        C  0.19751923  0.67274659  0.63341456    -0.02600
Br275      Br  0.18346122  0.73081412  0.66114681    -0.02200
H276        H  0.12921747  0.66584966  0.60670996     0.09900
H277        H  0.28098373  0.59152148  0.62500483     0.07900
Br278      Br  0.22579951  0.52144160  0.58205307    -0.02700
C279        C  0.25274664  0.62801618  0.38422460    -0.09300
C280        C  0.24461112  0.65127327  0.34318700     0.06900
C281        C  0.19980458  0.65370823  0.32577390    -0.03100
C282        C  0.16387601  0.63119532  0.34861543    -0.07500
C283        C  0.17179335  0.60683231  0.38955685     0.06000
C284        C  0.21697467  0.60633442  0.40783544    -0.02600
Br285      Br  0.23293422  0.57977196  0.46599121    -0.02200
H286        H  0.28719212  0.62728412  0.39828240     0.09900
H287        H  0.12964776  0.63288209  0.33421766     0.07900
Br288      Br  0.18617253  0.68945943  0.27232216    -0.02700
C289        C  0.16121374  0.34884815  0.36965162    -0.09300
C290        C  0.16864417  0.39492695  0.38273390     0.06900
C291        C  0.21176105  0.41532228  0.37270017    -0.03100
C292        C  0.24563115  0.39007996  0.34999961    -0.07500
C293        C  0.23814952  0.34430234  0.33705255     0.06000
C294        C  0.19565643  0.32337448  0.34756010    -0.02600
Br295      Br  0.18268336  0.26064881  0.33168442    -0.02200
H296        H  0.12864601  0.33227346  0.37723922     0.09900
H297        H  0.27840679  0.40635370  0.34254019     0.07900
Br298      Br  0.22674338  0.47798255  0.38666899    -0.02700
C299        C  0.81646823  0.61680276  0.57126910    -0.09300
C300        C  0.85496613  0.60202265  0.59607582     0.06900
C301        C  0.85604694  0.60941565  0.64392649    -0.03100
C302        C  0.82040958  0.63350213  0.66535827    -0.07500
C303        C  0.78255902  0.64933589  0.64025266     0.06000
C304        C  0.78014446  0.63948823  0.59295019    -0.02600
Br305      Br  0.72646112  0.65227496  0.55702452    -0.02200
H306        H  0.81443358  0.61043039  0.53476513     0.09900
H307        H  0.82193404  0.63934279  0.70201591     0.07900
Br308      Br  0.90265588  0.58377077  0.68255728    -0.02700
C309        C  0.81112258  0.39272977  0.56855408    -0.09300
C310        C  0.85043815  0.40562062  0.59335708     0.06900
C311        C  0.85085964  0.39979390  0.64128010    -0.03100
C312        C  0.81406049  0.37757428  0.66295232    -0.07500
C313        C  0.77585025  0.36235062  0.63772056     0.06000
C314        C  0.77363512  0.37207064  0.59043418    -0.02600
Br315      Br  0.71898686  0.36149650  0.55494199    -0.02200
H316        H  0.80943732  0.39894796  0.53196475     0.09900
H317        H  0.81527049  0.37220013  0.69968174     0.07900
Br318      Br  0.89862133  0.42515354  0.67903677    -0.02700
C319        C  0.81996497  0.33382775  0.34586782    -0.09300
C320        C  0.77968088  0.35854347  0.33703501     0.06900
C321        C  0.77694558  0.40489475  0.35081783    -0.03100
C322        C  0.81448727  0.42574289  0.37224314    -0.07500
C323        C  0.85493775  0.40109788  0.38092667     0.06000
C324        C  0.85735034  0.35447583  0.36774971    -0.02600
Br325      Br  0.90877217  0.31581775  0.38167586    -0.02200
H326        H  0.82210375  0.29795391  0.33618247     0.09900
H327        H  0.81180684  0.46138150  0.38265143     0.07900
Br328      Br  0.72189012  0.44050983  0.34477934    -0.02700
C329        C  0.86550289  0.63759353  0.34735100    -0.09300
C330        C  0.85498294  0.60708156  0.38356698     0.06900
C331        C  0.80789458  0.60092635  0.39584485    -0.03100
C332        C  0.77366297  0.62419500  0.37186436    -0.07500
C333        C  0.78458377  0.65412594  0.33604534     0.06000
C334        C  0.83080175  0.66118688  0.32394700    -0.02600
Br335      Br  0.84773942  0.70370410  0.27656054    -0.02200
H336        H  0.90087813  0.64343222  0.33715174     0.09900
H337        H  0.73795207  0.61908906  0.38142771     0.07900
Br338      Br  0.78592484  0.56300117  0.44541054    -0.02700
C339        C  0.66514201  0.15668688  0.60786040    -0.09300
C340        C  0.61843114  0.15995676  0.59600256     0.06900
C341        C  0.59372066  0.19952851  0.60911638    -0.03100
C342        C  0.61619132  0.23543258  0.63153986    -0.07500
C343        C  0.66299163  0.23262798  0.64239304     0.06000
C344        C  0.68738742  0.19247336  0.63119122    -0.02600
Br345      Br  0.74996970  0.18370578  0.64976604    -0.02200
H346        H  0.68443377  0.12618851  0.59897447     0.09900
H347        H  0.59687919  0.26586455  0.64067351     0.07900
Br348      Br  0.52862523  0.20572520  0.60086146    -0.02700
C349        C  0.40367821  0.19889156  0.56925362    -0.09300
C350        C  0.41339853  0.15894755  0.59434757     0.06900
C351        C  0.40266494  0.15779291  0.64160520    -0.03100
C352        C  0.37937550  0.19459327  0.66177085    -0.07500
C353        C  0.36827418  0.23371362  0.63611144     0.06000
C354        C  0.38226392  0.23638346  0.58993876    -0.02600
Br355      Br  0.37690414  0.29186809  0.55491066    -0.02200
H356        H  0.41347802  0.20134492  0.53347519     0.09900
H357        H  0.37059301  0.19304440  0.69787448     0.07900
Br358      Br  0.42363121  0.11007017  0.68160281    -0.02700
C359        C  0.38021783  0.19040347  0.31572281    -0.09300
C360        C  0.36362457  0.22760196  0.34154050     0.06900
C361        C  0.37279280  0.22907938  0.38912306    -0.03100
C362        C  0.39730911  0.19349779  0.40969775    -0.07500
C363        C  0.41336975  0.15616434  0.38393520     0.06000
C364        C  0.40516243  0.15509081  0.33632121    -0.02600
Br365      Br  0.43018863  0.10849994  0.29704948    -0.02200
H366        H  0.37411823  0.18901219  0.27911482     0.09900
H367        H  0.40376317  0.19495854  0.44623677     0.07900
Br368      Br  0.35576506  0.27965906  0.42782777    -0.02700
C369        C  0.63482122  0.15324009  0.34239878    -0.09300
C370        C  0.62427548  0.15733552  0.38921477     0.06900
C371        C  0.63604757  0.19823073  0.41252981    -0.03100
C372        C  0.65583094  0.23468066  0.38844989    -0.07500
C373        C  0.66503851  0.23119973  0.34134422     0.06000
C374        C  0.65510407  0.18966802  0.31839742    -0.02600
Br375      Br  0.67008264  0.17996617  0.25498831    -0.02200
H376        H  0.62651372  0.12185373  0.32416465     0.09900
H377        H  0.66384060  0.26616028  0.40665909     0.07900
Br378      Br  0.62859682  0.20592464  0.47755448    -0.02700
C379        C  0.36660454  0.85186546  0.61194462    -0.09300
C380        C  0.41290344  0.84587146  0.59921173     0.06900
C381        C  0.43469556  0.80393108  0.60962453    -0.03100
C382        C  0.40957478  0.76844613  0.63000764    -0.07500
C383        C  0.36308801  0.77403900  0.64164968     0.06000
C384        C  0.34180955  0.81652183  0.63337043    -0.02600
Br385      Br  0.28022411  0.82890025  0.65344766    -0.02200
H386        H  0.34951746  0.88411332  0.60506376     0.09900
H387        H  0.42661016  0.73622667  0.63714017     0.07900
Br388      Br  0.49927413  0.79373048  0.60020173    -0.02700
C389        C  0.63551922  0.85317602  0.64369915    -0.09300
C390        C  0.62150843  0.84677582  0.59794912     0.06900
C391        C  0.63203404  0.80482876  0.57590272    -0.03100
C392        C  0.65516558  0.77051106  0.59969341    -0.07500
C393        C  0.66858618  0.77662785  0.64537207     0.06000
C394        C  0.65884473  0.81854936  0.66745331    -0.02600
Br395      Br  0.67854586  0.83102741  0.72895318    -0.02200
H396        H  0.62815634  0.88517113  0.66117289     0.09900
H397        H  0.66242016  0.73840707  0.58237462     0.07900
Br398      Br  0.61833852  0.79216242  0.51275276    -0.02700
C399        C  0.65520337  0.85170270  0.35923476    -0.09300
C400        C  0.61364903  0.84248685  0.38252283     0.06900
C401        C  0.59550329  0.79716268  0.38113552    -0.03100
C402        C  0.61964329  0.76260875  0.35828930    -0.07500
C403        C  0.66149323  0.77193299  0.33633327     0.06000
C404        C  0.67902281  0.81695307  0.33629471    -0.02600
Br405      Br  0.73452894  0.83279521  0.30418332    -0.02200
H406        H  0.66973751  0.88602941  0.35924983     0.09900
H407        H  0.60567702  0.72802684  0.35766706     0.07900
Br408      Br  0.53734800  0.77937731  0.40739286    -0.02700
C409        C  0.39567534  0.85050239  0.34523841    -0.09300
C410        C  0.40987532  0.84425912  0.39083937     0.06900
C411        C  0.39885045  0.80270894  0.41343677    -0.03100
C412        C  0.37618678  0.76783641  0.38960234    -0.07500
C413        C  0.36317973  0.77371091  0.34372674     0.06000
C414        C  0.37210641  0.81586349  0.32180526    -0.02600
Br415      Br  0.35018437  0.82904021  0.26126230    -0.02200
H416        H  0.40288091  0.88252648  0.32765428     0.09900
H417        H  0.36862105  0.73580420  0.40704906     0.07900
Br418      Br  0.41057015  0.79213588  0.47738789    -0.02700
C419        C  0.65274690  0.37942179  0.14063840    -0.09300
C420        C  0.60673770  0.39274706  0.14705305     0.06900
C421        C  0.58500727  0.38280983  0.18936064    -0.03100
C422        C  0.60988166  0.36196987  0.22450239    -0.07500
C423        C  0.65612935  0.35001687  0.21841889     0.06000
C424        C  0.67740600  0.35815973  0.17575018    -0.02600
Br425      Br  0.73926126  0.33926028  0.16294809    -0.02200
H426        H  0.66995614  0.38617416  0.10832037     0.09900
H427        H  0.59300465  0.35517812  0.25699668     0.07900
Br428      Br  0.52102854  0.39398056  0.20097471    -0.02700
C429        C  0.65363956  0.60372950  0.21920430    -0.09300
C430        C  0.66298368  0.65095075  0.21590797     0.06900
C431        C  0.64904864  0.67494237  0.17635329    -0.03100
C432        C  0.62446163  0.65202915  0.14203486    -0.07500
C433        C  0.61402320  0.60500062  0.14587669     0.06000
C434        C  0.62991971  0.58058470  0.18449650    -0.02600
Br435      Br  0.62383714  0.51510997  0.19029054    -0.02200
H436        H  0.66482787  0.58468259  0.24903113     0.09900
H437        H  0.61360997  0.67106332  0.11207366     0.07900
Br438      Br  0.66541955  0.73811816  0.16599327    -0.02700
C439        C  0.43258138  0.61996864  0.18467440    -0.09300
C440        C  0.40608330  0.60761249  0.14642674     0.06900
C441        C  0.35869678  0.61774193  0.14634613    -0.03100
C442        C  0.33905843  0.64062567  0.18366115    -0.07500
C443        C  0.36558780  0.65305522  0.22185670     0.06000
C444        C  0.41279116  0.64200052  0.22236053    -0.02600
Br445      Br  0.45124121  0.65200736  0.27490103    -0.02200
H446        H  0.46886906  0.61172849  0.18561662     0.09900
H447        H  0.30259389  0.64806982  0.18321774     0.07900
Br448      Br  0.31803018  0.59756050  0.09872335    -0.02700
C449        C  0.39248850  0.34727069  0.13980058    -0.09300
C450        C  0.40329051  0.39417992  0.14483124     0.06900
C451        C  0.39131388  0.41650687  0.18623918    -0.03100
C452        C  0.36975236  0.39188988  0.22137112    -0.07500
C453        C  0.35944675  0.34506594  0.21655628     0.06000
C454        C  0.37100586  0.32263032  0.17526507    -0.02600
Br455      Br  0.35671401  0.25904943  0.16488224    -0.02200
H456        H  0.40125675  0.32950449  0.10833805     0.09900
H457        H  0.36093899  0.40952715  0.25290733     0.07900
Br458      Br  0.40078150  0.48104485  0.19672880    -0.02700
C459        C  0.64125605  0.60917526  0.75310051    -0.09300
C460        C  0.66217707  0.65165536  0.76189163     0.06900
C461        C  0.66033614  0.67018008  0.80635880    -0.03100
C462        C  0.63755898  0.64615747  0.84126429    -0.07500
C463        C  0.61595583  0.60363112  0.83265114     0.06000
C464        C  0.61830977  0.58503409  0.78771272    -0.02600
Br465      Br  0.59337931  0.52612951  0.77063139    -0.02200
H466        H  0.64289433  0.59462804  0.71891910     0.09900
H467        H  0.63640554  0.66117518  0.87523297     0.07900
Br468      Br  0.68977727  0.72732453  0.82138321    -0.02700
C469        C  0.68204335  0.36010632  0.80242047    -0.09300
C470        C  0.65820421  0.35447895  0.76118615     0.06900
C471        C  0.61315556  0.37113878  0.75709598    -0.03100
C472        C  0.59247535  0.39290373  0.79421442    -0.07500
C473        C  0.61608459  0.39894853  0.83574180     0.06000
C474        C  0.66150831  0.38211312  0.83973993    -0.02600
Br475      Br  0.69883447  0.39013521  0.89341178    -0.02200
H476        H  0.71699601  0.34772570  0.80535103     0.09900
H477        H  0.55766658  0.40540192  0.79035972     0.07900
Br478      Br  0.57929692  0.36762153  0.70080904    -0.02700
C479        C  0.37007941  0.40062835  0.75428430    -0.09300
C480        C  0.35981942  0.35367409  0.75785338     0.06900
C481        C  0.37096898  0.33013969  0.79854005    -0.03100
C482        C  0.39263878  0.35358940  0.83442007    -0.07500
C483        C  0.40403358  0.40038105  0.83046175     0.06000
C484        C  0.39210102  0.42403390  0.78988168    -0.02600
Br485      Br  0.40288563  0.48857761  0.78116440    -0.02200
H486        H  0.36150410  0.41910277  0.72323781     0.09900
H487        H  0.40126805  0.33492522  0.86532905     0.07900
Br488      Br  0.35606369  0.26645041  0.80757051    -0.02700
C489        C  0.43082718  0.61766715  0.79442199    -0.09300
C490        C  0.40485566  0.60545411  0.83320350     0.06900
C491        C  0.35740010  0.61550893  0.83411988    -0.03100
C492        C  0.33704307  0.63720325  0.79660336    -0.07500
C493        C  0.36313258  0.64973751  0.75802040     0.06000
C494        C  0.41059227  0.63961820  0.75710257    -0.02600
Br495      Br  0.44945701  0.65228789  0.70518188    -0.02200
H496        H  0.46724681  0.61003824  0.79307353     0.09900
H497        H  0.30058229  0.64461820  0.79767869     0.08300
Br498      Br  0.31784773  0.59867544  0.88421511    -0.02700
loop_ 
_geom_bond_atom_site_label_1 
_geom_bond_atom_site_label_2 
_geom_bond_distance 
_geom_bond_site_symmetry_2 
_ccdc_geom_bond_type 
O1          Zr13   2.455       .  S
O1            C3   1.290       .  A
O2          Zr39   2.410       .  S
O2            C3   1.283       .  A
C3          C483   1.481       .  S
O4          Zr16   2.443   1_554  S
O4            C6   1.288       .  A
O5          Zr40   2.410       .  S
O5            C6   1.284       .  A
C6          C440   1.476       .  S
O7          Zr16   2.439       .  S
O7            C9   1.287       .  A
O8          Zr39   2.417       .  S
O8            C9   1.286       .  A
C9          C490   1.477       .  S
O10         Zr13   2.448   1_554  S
O10          C12   1.290       .  A
O11         Zr40   2.420       .  S
O11          C12   1.286       .  A
C12         C450   1.484       .  S
Zr13         O14   2.434       .  S
Zr13         O15   2.436       .  S
Zr13         O19   2.371       .  S
Zr13         O20   2.378   1_556  S
Zr13         O43   2.375   1_556  S
Zr13         O45   2.368       .  S
O14          H57   0.990       .  S
O15          H56   0.990       .  S
O15          H60   0.990       .  S
Zr16         O17   2.433       .  S
Zr16         O18   2.434       .  S
Zr16         O20   2.370   1_556  S
Zr16         O19   2.373       .  S
Zr16         O44   2.374       .  S
Zr16         O46   2.374   1_556  S
O17          H58   0.990   1_556  S
O17          H61   0.990       .  S
O18          H51   0.990   1_556  S
O19         Zr39   2.374       .  S
O20         Zr40   2.382       .  S
O20          H47   0.966       .  S
O21         Zr33   2.441   1_554  S
O21          C23   1.288       .  A
O22         Zr40   2.419       .  S
O22          C23   1.285       .  A
C23         C420   1.482       .  S
O24         Zr36   2.451       .  S
O24          C26   1.290       .  A
O25         Zr39   2.405       .  S
O25          C26   1.281       .  A
C26         C463   1.486       .  S
O27         Zr36   2.440   1_554  S
O27          C29   1.288       .  A
O28         Zr40   2.426       .  S
O28          C29   1.287       .  A
C29         C433   1.479       .  S
O30         Zr33   2.423       .  S
O30          C32   1.283       .  A
O31         Zr39   2.416       .  S
O31          C32   1.286       .  A
C32         C473   1.475       .  S
Zr33         O34   2.436       .  S
Zr33         O35   2.435       .  S
Zr33         O41   2.366   1_556  S
Zr33         O42   2.377       .  S
Zr33         O45   2.376       .  S
Zr33         O43   2.365   1_556  S
O34          H54   0.990   1_556  S
O34          H59   0.990   1_556  S
O35          H55   0.990       .  S
Zr36         O37   2.434       .  S
Zr36         O38   2.436       .  S
Zr36         O42   2.371       .  S
Zr36         O41   2.381   1_556  S
Zr36         O46   2.375   1_556  S
Zr36         O44   2.365       .  S
O37          H53   0.990       .  S
O38          H52   0.990   1_556  S
O38          H62   0.990       .  S
Zr39         O42   2.376       .  S
Zr39         O44   2.378       .  S
Zr39         O45   2.378       .  S
Zr40         O41   2.379       .  S
Zr40         O43   2.375       .  S
Zr40         O46   2.381       .  S
O41          H49   0.966       .  S
O44          H48   0.966       .  S
O45          H50   0.964       .  S
O63         Zr75   2.433   1_565  S
O63          C65   1.287       .  A
O64        Zr101   2.414       .  S
O64          C65   1.284       .  A
C65         C410   1.475       .  S
O66         Zr78   2.448       .  S
O66          C68   1.289       .  A
O67        Zr102   2.403       .  S
O67          C68   1.283       .  A
C68         C370   1.473       .  S
O69         Zr78   2.449   1_565  S
O69          C71   1.290       .  A
O70        Zr101   2.410       .  S
O70          C71   1.283       .  A
C71         C400   1.487       .  S
O72         Zr75   2.439       .  S
O72          C74   1.287       .  A
O73        Zr102   2.424       .  S
O73          C74   1.287       .  A
C74         C363   1.476       .  S
Zr75         O76   2.435   1_545  S
Zr75         O77   2.434       .  S
Zr75         O81   2.369   1_545  S
Zr75         O82   2.369       .  S
Zr75        O105   2.370       .  S
Zr75        O107   2.373   1_545  S
O76         H119   0.990       .  S
O77         H118   0.990   1_545  S
O77         H122   0.990   1_545  S
Zr78         O79   2.436       .  S
Zr78         O80   2.435   1_545  S
Zr78         O82   2.371       .  S
Zr78         O81   2.368   1_545  S
Zr78        O106   2.371   1_545  S
Zr78        O108   2.373       .  S
O79         H120   0.990       .  S
O79         H123   0.990       .  S
O80         H113   0.990       .  S
O81        Zr101   2.375       .  S
O82        Zr102   2.379       .  S
O82         H109   0.968       .  S
O83         Zr95   2.442       .  S
O83          C85   1.288       .  A
O84        Zr102   2.413       .  S
O84          C85   1.285       .  A
C85         C350   1.478       .  S
O86         Zr98   2.441   1_565  S
O86          C88   1.288       .  A
O87        Zr101   2.419       .  S
O87          C88   1.285       .  A
C88         C390   1.483       .  S
O89         Zr98   2.445       .  S
O89          C91   1.289       .  A
O90        Zr102   2.418       .  S
O90          C91   1.285       .  A
C91         C340   1.479       .  S
O92         Zr95   2.437   1_565  S
O92          C94   1.287       .  A
O93        Zr101   2.416       .  S
O93          C94   1.285       .  A
C94         C380   1.479       .  S
Zr95         O96   2.431   1_545  S
Zr95         O97   2.433   1_545  S
Zr95        O103   2.368       .  S
Zr95        O104   2.370   1_545  S
Zr95        O107   2.367   1_545  S
Zr95        O105   2.377       .  S
O96         H116   0.990   1_565  S
O96         H121   0.990   1_565  S
O97         H117   0.990   1_565  S
Zr98         O99   2.433       .  S
Zr98        O100   2.435       .  S
Zr98        O104   2.374   1_545  S
Zr98        O103   2.371       .  S
Zr98        O108   2.370       .  S
Zr98        O106   2.374   1_545  S
O99         H115   0.990   1_545  S
O100        H114   0.990       .  S
O100        H124   0.990       .  S
Zr101       O104   2.371       .  S
Zr101       O106   2.380       .  S
Zr101       O107   2.376       .  S
Zr102       O103   2.377       .  S
Zr102       O105   2.373       .  S
Zr102       O108   2.376       .  S
O103        H111   0.969       .  S
O106        H110   0.972       .  S
O107        H112   0.978       .  S
O125       Zr137   2.465   1_655  S
O125        C127   1.292       .  A
O126       Zr163   2.404       .  S
O126        C127   1.280       .  A
C127        C330   1.497       .  S
O128       Zr140   2.450       .  S
O128        C130   1.289       .  A
O129       Zr164   2.432       .  S
O129        C130   1.287       .  A
C130        C290   1.491       .  S
O131       Zr140   2.437   1_655  S
O131        C133   1.287       .  A
O132       Zr163   2.410       .  S
O132        C133   1.284       .  A
C133        C323   1.475       .  S
O134       Zr137   2.448       .  S
O134        C136   1.290       .  A
O135       Zr164   2.404       .  S
O135        C136   1.282       .  A
C136        C283   1.484       .  S
Zr137       O138   2.432       .  S
Zr137       O139   2.437       .  S
Zr137       O143   2.373   1_455  S
Zr137       O144   2.385       .  S
Zr137       O167   2.372       .  S
Zr137       O169   2.368   1_455  S
O138        H181   0.990   1_455  S
O139        H180   0.990   1_455  S
O139        H184   0.990   1_455  S
Zr140       O141   2.434       .  S
Zr140       O142   2.435       .  S
Zr140       O144   2.371       .  S
Zr140       O143   2.380   1_455  S
Zr140       O168   2.374   1_455  S
Zr140       O170   2.369       .  S
O141        H182   0.990       .  S
O141        H185   0.990       .  S
O142        H175   0.990       .  S
O143       Zr163   2.375       .  S
O144       Zr164   2.381       .  S
O144        H171   0.966       .  S
O145       Zr157   2.443       .  S
O145        C147   1.289       .  A
O146       Zr164   2.420       .  S
O146        C147   1.285       .  A
C147        C270   1.486       .  S
O148       Zr160   2.453   1_655  S
O148        C150   1.290       .  A
O149       Zr163   2.397       .  S
O149        C150   1.282       .  A
C150        C310   1.472       .  S
O151       Zr160   2.458       .  S
O151        C153   1.292       .  A
O152       Zr164   2.420       .  S
O152        C153   1.286       .  A
C153        C260   1.487       .  S
O154       Zr157   2.445   1_655  S
O154        C156   1.288       .  A
O155       Zr163   2.422       .  S
O155        C156   1.286       .  A
C156        C300   1.481       .  S
Zr157       O158   2.436       .  S
Zr157       O159   2.434       .  S
Zr157       O165   2.373       .  S
Zr157       O166   2.366   1_455  S
Zr157       O169   2.376   1_455  S
Zr157       O167   2.374       .  S
O158        H178   0.990   1_455  S
O158        H183   0.990       .  S
O159        H179   0.990       .  S
Zr160       O161   2.434       .  S
Zr160       O162   2.434   1_455  S
Zr160       O166   2.370   1_455  S
Zr160       O165   2.373       .  S
Zr160       O170   2.377       .  S
Zr160       O168   2.371   1_455  S
O161        H177   0.990       .  S
O162        H176   0.990   1_655  S
O162        H186   0.990   1_655  S
Zr163       O166   2.373       .  S
Zr163       O168   2.382       .  S
Zr163       O169   2.374       .  S
Zr164       O165   2.380       .  S
Zr164       O167   2.380       .  S
Zr164       O170   2.373       .  S
O165        H173   0.961       .  S
O168        H172   0.974       .  S
O169        H174   0.968       .  S
C187        C320   1.477       .  S
C187        C188   1.403       .  A
C187        C192   1.401       .  A
C188        C189   1.403       .  A
C188        H193   1.084       .  S
C189        C423   1.477       .  S
C189        C190   1.402       .  A
C190        C191   1.402       .  A
C190        H194   1.084       .  S
C191        C373   1.479       .  S
C191        C192   1.402       .  A
C192        H195   1.084       .  S
C196        C333   1.473       .  S
C196        C197   1.403       .  A
C196        C201   1.402       .  A
C197        C198   1.405       .  A
C197        H202   1.084       .  S
C198        C430   1.481       .  S
C198        C199   1.402       .  A
C199        C200   1.400       .  A
C199        H203   1.084       .  S
C200        C403   1.473       .  S
C200        C201   1.402       .  A
C201        H204   1.084       .  S
C205        C470   1.465       .  S
C205        C206   1.398       .  A
C205        C210   1.398       .  A
C206        C207   1.400       .  A
C206        H211   1.084       .  S
C207        C343   1.477       .  S
C207        C208   1.402       .  A
C208        C209   1.405       .  A
C208        H212   1.083       .  S
C209        C313   1.477       .  S
C209        C210   1.400       .  A
C210        H213   1.084       .  S
C214        C413   1.474       .  S
C214        C215   1.403       .  A
C214        C219   1.399       .  A
C215        C216   1.404       .  A
C215        H220   1.083       .  S
C216        C443   1.480       .  S
C216        C217   1.404       .  A
C217        C218   1.400       .  A
C217        H221   1.084       .  S
C218        C280   1.467       .  S
C218        C219   1.396       .  A
C219        H222   1.084       .  S
C223        C493   1.481       .  S
C223        C224   1.399       .  A
C223        C228   1.403       .  A
C224        C225   1.400       .  A
C224        H229   1.084       .  S
C225        C383   1.478       .  S
C225        C226   1.405       .  A
C226        C227   1.405       .  A
C226        H230   1.084       .  S
C227        C273   1.480       .  S
C227        C228   1.405       .  A
C228        H231   1.084       .  S
C232        C480   1.479       .  S
C232        C233   1.405       .  A
C232        C237   1.402       .  A
C233        C234   1.404       .  A
C233        H238   1.084       .  S
C234        C263   1.483       .  S
C234        C235   1.403       .  A
C235        C236   1.403       .  A
C235        H239   1.084       .  S
C236        C353   1.477       .  S
C236        C237   1.400       .  A
C237        H240   1.084       .  S
C241        C460   1.474       .  S
C241        C242   1.402       .  A
C241        C246   1.402       .  A
C242        C243   1.401       .  A
C242        H247   1.084       .  S
C243        C303   1.483       .  S
C243        C244   1.404       .  A
C244        C245   1.405       .  A
C244        H248   1.084       .  S
C245        C393   1.480       .  S
C245        C246   1.403       .  A
C246        H249   1.084       .  S
C250        C360   1.485       .  S
C250        C251   1.406       .  A
C250        C255   1.407       .  A
C251        C252   1.402       .  A
C251        H256   1.083       .  S
C252        C293   1.482       .  S
C252        C253   1.404       .  A
C253        C254   1.403       .  A
C253        H257   1.084       .  S
C254        C453   1.483       .  S
C254        C255   1.402       .  A
C255        H258   1.084       .  S
C259        C260   1.408       .  A
C259        C264   1.403       .  A
C259        H266   1.083       .  S
C260        C261   1.416       .  A
C261        C262   1.397       .  A
C261       Br268   1.920       .  S
C262        C263   1.401       .  A
C262        H267   1.084       .  S
C263        C264   1.410       .  A
C264       Br265   1.919       .  S
C269        C270   1.409       .  A
C269        C274   1.402       .  A
C269        H276   1.083       .  S
C270        C271   1.416       .  A
C271        C272   1.396       .  A
C271       Br278   1.924       .  S
C272        C273   1.400       .  A
C272        H277   1.084       .  S
C273        C274   1.408       .  A
C274       Br275   1.919       .  S
C279        C280   1.397       .  A
C279        C284   1.395       .  A
C279        H286   1.084       .  S
C280        C281   1.402       .  A
C281        C282   1.398       .  A
C281       Br288   1.918       .  S
C282        C283   1.409       .  A
C282        H287   1.083       .  S
C283        C284   1.420       .  A
C284       Br285   1.924       .  S
C289        C290   1.410       .  A
C289        C294   1.404       .  A
C289        H296   1.083       .  S
C290        C291   1.415       .  A
C291        C292   1.397       .  A
C291       Br298   1.917       .  S
C292        C293   1.401       .  A
C292        H297   1.084       .  S
C293        C294   1.408       .  A
C294       Br295   1.920       .  S
C299        C300   1.404       .  A
C299        C304   1.398       .  A
C299        H306   1.082       .  S
C300        C301   1.412       .  A
C301        C302   1.400       .  A
C301       Br308   1.919       .  S
C302        C303   1.404       .  A
C302        H307   1.084       .  S
C303        C304   1.411       .  A
C304       Br305   1.921       .  S
C309        C310   1.405       .  A
C309        C314   1.396       .  A
C309        H316   1.084       .  S
C310        C311   1.408       .  A
C311        C312   1.398       .  A
C311       Br318   1.920       .  S
C312        C313   1.405       .  A
C312        H317   1.083       .  S
C313        C314   1.410       .  A
C314       Br315   1.923       .  S
C319        C320   1.402       .  A
C319        C324   1.396       .  A
C319        H326   1.084       .  S
C320        C321   1.410       .  A
C321        C322   1.396       .  A
C321       Br328   1.920       .  S
C322        C323   1.405       .  A
C322        H327   1.084       .  S
C323        C324   1.412       .  A
C324       Br325   1.920       .  S
C329        C330   1.412       .  A
C329        C334   1.403       .  A
C329        H336   1.083       .  S
C330        C331   1.425       .  A
C331        C332   1.397       .  A
C331       Br338   1.925       .  S
C332        C333   1.396       .  A
C332        H337   1.084       .  S
C333        C334   1.403       .  A
C334       Br335   1.917       .  S
C339        C340   1.407       .  A
C339        C344   1.401       .  A
C339        H346   1.083       .  S
C340        C341   1.413       .  A
C341        C342   1.394       .  A
C341       Br348   1.919       .  S
C342        C343   1.401       .  A
C342        H347   1.084       .  S
C343        C344   1.408       .  A
C344       Br345   1.919       .  S
C349        C350   1.405       .  A
C349        C354   1.395       .  A
C349        H356   1.083       .  S
C350        C351   1.413       .  A
C351        C352   1.399       .  A
C351       Br358   1.917       .  S
C352        C353   1.402       .  A
C352        H357   1.084       .  S
C353        C354   1.408       .  A
C354       Br355   1.919       .  S
C359        C360   1.405       .  A
C359        C364   1.398       .  A
C359        H366   1.084       .  S
C360        C361   1.415       .  A
C361        C362   1.397       .  A
C361       Br368   1.921       .  S
C362        C363   1.402       .  A
C362        H367   1.083       .  S
C363        C364   1.410       .  A
C364       Br365   1.919       .  S
C369        C370   1.404       .  A
C369        C374   1.398       .  A
C369        H376   1.084       .  S
C370        C371   1.412       .  A
C371        C372   1.394       .  A
C371       Br378   1.921       .  S
C372        C373   1.403       .  A
C372        H377   1.084       .  S
C373        C374   1.411       .  A
C374       Br375   1.920       .  S
C379        C380   1.407       .  A
C379        C384   1.400       .  A
C379        H386   1.083       .  S
C380        C381   1.412       .  A
C381        C382   1.395       .  A
C381       Br388   1.922       .  S
C382        C383   1.403       .  A
C382        H387   1.083       .  S
C383        C384   1.407       .  A
C384       Br385   1.918       .  S
C389        C390   1.408       .  A
C389        C394   1.402       .  A
C389        H396   1.083       .  S
C390        C391   1.414       .  A
C391        C392   1.394       .  A
C391       Br398   1.921       .  S
C392        C393   1.400       .  A
C392        H397   1.083       .  S
C393        C394   1.409       .  A
C394       Br395   1.919       .  S
C399        C400   1.409       .  A
C399        C404   1.398       .  A
C399        H406   1.083       .  S
C400        C401   1.419       .  A
C401        C402   1.397       .  A
C401       Br408   1.923       .  S
C402        C403   1.399       .  A
C402        H407   1.084       .  S
C403        C404   1.404       .  A
C404       Br405   1.918       .  S
C409        C410   1.406       .  A
C409        C414   1.396       .  A
C409        H416   1.083       .  S
C410        C411   1.413       .  A
C411        C412   1.394       .  A
C411       Br418   1.922       .  S
C412        C413   1.402       .  A
C412        H417   1.084       .  S
C413        C414   1.407       .  A
C414       Br415   1.919       .  S
C419        C420   1.407       .  A
C419        C424   1.398       .  A
C419        H426   1.083       .  S
C420        C421   1.414       .  A
C421        C422   1.397       .  A
C421       Br428   1.920       .  S
C422        C423   1.402       .  A
C422        H427   1.084       .  S
C423        C424   1.408       .  A
C424       Br425   1.919       .  S
C429        C430   1.403       .  A
C429        C434   1.398       .  A
C429        H436   1.084       .  S
C430        C431   1.410       .  A
C431        C432   1.399       .  A
C431       Br438   1.921       .  S
C432        C433   1.405       .  A
C432        H437   1.084       .  S
C433        C434   1.412       .  A
C434       Br435   1.921       .  S
C439        C440   1.404       .  A
C439        C444   1.396       .  A
C439        H446   1.084       .  S
C440        C441   1.411       .  A
C441        C442   1.398       .  A
C441       Br448   1.917       .  S
C442        C443   1.403       .  A
C442        H447   1.084       .  S
C443        C444   1.412       .  A
C444       Br445   1.921       .  S
C449        C450   1.407       .  A
C449        C454   1.403       .  A
C449        H456   1.083       .  S
C450        C451   1.415       .  A
C451        C452   1.396       .  A
C451       Br458   1.922       .  S
C452        C453   1.401       .  A
C452        H457   1.084       .  S
C453        C454   1.410       .  A
C454       Br455   1.919       .  S
C459        C460   1.400       .  A
C459        C464   1.397       .  A
C459        H466   1.084       .  S
C460        C461   1.405       .  A
C461        C462   1.399       .  A
C461       Br468   1.919       .  S
C462        C463   1.408       .  A
C462        H467   1.083       .  S
C463        C464   1.419       .  A
C464       Br465   1.925       .  S
C469        C470   1.399       .  A
C469        C474   1.397       .  A
C469        H476   1.084       .  S
C470        C471   1.405       .  A
C471        C472   1.391       .  A
C471       Br478   1.919       .  S
C472        C473   1.405       .  A
C472        H477   1.084       .  S
C473        C474   1.416       .  A
C474       Br475   1.921       .  S
C479        C480   1.402       .  A
C479        C484   1.397       .  A
C479        H486   1.084       .  S
C480        C481   1.410       .  A
C481        C482   1.399       .  A
C481       Br488   1.920       .  S
C482        C483   1.405       .  A
C482        H487   1.084       .  S
C483        C484   1.415       .  A
C484       Br485   1.920       .  S
C489        C490   1.403       .  A
C489        C494   1.396       .  A
C489        H496   1.084       .  S
C490        C491   1.412       .  A
C491        C492   1.398       .  A
C491       Br498   1.919       .  S
C492        C493   1.403       .  A
C492        H497   1.084       .  S
C493        C494   1.413       .  A
C494       Br495   1.922       .  S
