geometry optimzed in LAMMPS
_audit_creation_date              2020-12-01 
_audit_creation_method            'lammps2cif' 
_symmetry_space_group_name_H-M    'P1' 
_symmetry_Int_Tables_number       1 
_symmetry_cell_setting            triclinic 
loop_ 
_symmetry_equiv_pos_as_xyz 
  x,y,z 
_cell_length_a                    43.22567054 
_cell_length_b                    43.35810573736063 
_cell_length_c                    78.73674200904568 
_cell_angle_alpha                 89.78431589484927 
_cell_angle_beta                  90.37364471613381 
_cell_angle_gamma                 93.62975020085841 
loop_ 
_atom_site_label 
_atom_site_type_symbol 
_atom_site_fract_x 
_atom_site_fract_y 
_atom_site_fract_z 
_atom_site_charge 
C1          C  0.24540322  0.49337139  0.25111250    -0.02500
N2          N  0.45203085  0.24648102  0.99967072    -0.36700
N3          N  0.99842915  0.23975788  0.02627577    -0.57200
N4          N  0.04404270  0.22577464  0.00110941    -0.36700
N5          N  0.99665527  0.22885178  0.97453711    -0.57200
C6          C  0.43379778  0.24626980  0.01357299     0.26900
C7          C  0.43322182  0.24172755  0.98601583     0.26900
C8          C  0.06009889  0.21958329  0.01540094     0.26900
C9          C  0.05950180  0.21459907  0.98784889     0.26900
C10         C  0.47555097  0.25077934  0.03562431     0.35500
C11         C  0.02380131  0.24027262  0.03643147     0.35500
C12         C  0.47381472  0.23726770  0.96401652     0.35500
C13         C  0.02202640  0.22654131  0.96477800     0.35500
C14         C  0.40296688  0.24172519  0.00866950    -0.21900
C15         C  0.40260324  0.23894799  0.99124899    -0.21900
C16         C  0.08648802  0.20480875  0.01111183    -0.21900
C17         C  0.08612896  0.20170485  0.99370835    -0.21900
C18         C  0.48641020  0.25832413  0.05178379    -0.23000
C19         C  0.01685539  0.25157466  0.05232152    -0.23000
C20         C  0.48461668  0.23994004  0.94750446    -0.23000
C21         C  0.01509473  0.23314180  0.94797739    -0.23000
C22         C  0.44420089  0.25121555  0.03046998    -0.18300
C23         C  0.44292254  0.24139002  0.96891376    -0.18300
C24         C  0.05112189  0.21733877  0.97055648    -0.18300
C25         C  0.05245658  0.22846315  0.03206151    -0.18300
H26         H  0.38280669  0.24069453  0.01678192     0.14600
H27         H  0.38213781  0.23529368  0.98333483     0.14600
H28         H  0.10437695  0.19737629  0.01959532     0.14600
H29         H  0.10362511  0.19137305  0.98621299     0.14600
H30         H  0.47351612  0.26716824  0.06224610     0.12800
H31         H  0.03191753  0.25412319  0.06331943     0.12800
H32         H  0.47193449  0.24626050  0.93625452     0.12800
H33         H  0.03039855  0.23305950  0.93715315     0.12800
H34         H  0.47557955  0.25281602  0.99932442     0.26100
H35         H  0.02550501  0.23972220  0.00021560     0.26100
C36         C  0.25600204  0.99287549  0.75177222    -0.02500
C37         C  0.99295254  0.25882815  0.75134165    -0.02500
N38         N  0.25122180  0.04027304  0.00068136    -0.36700
N39         N  0.24125692  0.49409045  0.97474964    -0.57200
N40         N  0.23159888  0.44669280  0.00083552    -0.36700
N41         N  0.24347500  0.49392118  0.02669935    -0.57200
C42         C  0.26071211  0.05752158  0.98709198     0.26900
C43         C  0.25870161  0.05683434  0.01481766     0.26900
C44         C  0.23419707  0.42881391  0.98694674     0.26900
C45         C  0.23642222  0.42877125  0.01459611     0.26900
C46         C  0.24675558  0.01893778  0.96428801     0.35500
C47         C  0.23260176  0.46976947  0.96470444     0.35500
C48         C  0.24219578  0.01693103  0.03650789     0.35500
C49         C  0.23455548  0.46952835  0.03662826     0.35500
C50         C  0.27390123  0.08570722  0.99265222    -0.21900
C51         C  0.27260126  0.08529742  0.01013732    -0.21900
C52         C  0.23998312  0.39900503  0.99193314    -0.21900
C53         C  0.24158053  0.39902367  0.00938514    -0.21900
C54         C  0.24068101  0.01089942  0.94749486    -0.23000
C55         C  0.22863734  0.47961375  0.94811750    -0.23000
C56         C  0.23388948  0.00777314  0.05285364    -0.23000
C57         C  0.22790772  0.47939886  0.05284288    -0.23000
C58         C  0.25636251  0.04914328  0.96981972    -0.18300
C59         C  0.25180036  0.04756183  0.03173407    -0.18300
C60         C  0.23506267  0.43828084  0.03172782    -0.18300
C61         C  0.23093318  0.43846640  0.96990319    -0.18300
H62         H  0.28324867  0.10472823  0.98491984     0.14600
H63         H  0.28072674  0.10399398  0.01842081     0.14600
H64         H  0.24308280  0.37933756  0.98383268     0.14600
H65         H  0.24604846  0.37933711  0.01731513     0.14600
H66         H  0.24172068  0.02584021  0.93644540     0.12800
H67         H  0.22250767  0.46558091  0.93711334     0.12800
H68         H  0.23213341  0.02208481  0.06398397     0.12800
H69         H  0.22057268  0.46532324  0.06364551     0.12800
H70         H  0.23745408  0.01981855  0.00030392     0.26100
H71         H  0.22406241  0.46897735  0.00094897     0.26100
C72         C  0.33576247  0.24266001  0.88604777     0.42400
N73         N  0.30840999  0.23138035  0.86388399     0.01300
C74         C  0.20775946  0.32323699  0.82089607    -0.06600
H75         H  0.19052265  0.31296788  0.88637223     0.06800
C76         C  0.16718933  0.20080017  0.87948034    -0.06900
Co77       Co  0.27989685  0.28572001  0.84806290     0.74200
N78         N  0.22446907  0.29861620  0.86852402    -0.26100
Co79       Co  0.19994585  0.27426619  0.84930616     0.74100
C80         C  0.15735630  0.22680137  0.88947654     0.42500
N81         N  0.23310977  0.17285389  0.86310749     0.00900
N82         N  0.17996589  0.24420319  0.86703984     0.01000
N83         N  0.25998531  0.33102012  0.81979799    -0.47000
H84         H  0.32601114  0.29433600  0.88385847     0.06800
N85         N  0.25490320  0.30297866  0.86792994     0.01300
N86         N  0.17603303  0.24892208  0.83020363     0.01000
C87         C  0.14154368  0.23440500  0.81164287     0.42600
N88         N  0.26358168  0.17697850  0.86283038    -0.25600
C89         C  0.32423504  0.28102788  0.81727025    -0.06500
N90         N  0.32563607  0.21938973  0.87579199    -0.46700
N91         N  0.15433908  0.25920259  0.82005906    -0.46900
C92         C  0.33908911  0.25602422  0.80876745     0.42400
N93         N  0.25151908  0.30888139  0.83085916     0.01300
N94         N  0.26152463  0.18212245  0.82558231    -0.25600
N95         N  0.30658548  0.26150081  0.86542403    -0.26100
N96         N  0.23110275  0.17697157  0.82590971     0.00900
H97         H  0.29707548  0.16542096  0.80956453     0.06800
H98         H  0.15195446  0.18331145  0.81492124     0.06900
N99         N  0.22108605  0.30404136  0.83164288    -0.26100
N100        N  0.18137831  0.21398515  0.86586093    -0.25700
N101        N  0.30682139  0.23678620  0.82719343     0.01300
C102        C  0.24261480  0.32534433  0.89095413     0.42700
C103        C  0.27513800  0.16199079  0.87623483    -0.07000
N104        N  0.17820744  0.21875076  0.82896845    -0.25700
H105        H  0.16533471  0.17637262  0.88240051     0.06800
N106        N  0.26664650  0.31890091  0.88101236    -0.47000
H107        H  0.29931661  0.16220921  0.87984449     0.06800
C108        C  0.24575261  0.15188666  0.80414086     0.42500
C109        C  0.32322550  0.27088477  0.87921023    -0.06500
Co110      Co  0.28550423  0.20643228  0.84478019     0.73800
N111        N  0.22289740  0.15603884  0.87619337    -0.46700
C112        C  0.23348316  0.34103769  0.81296660     0.42800
N113        N  0.32750423  0.22940334  0.81584297    -0.46700
Co114      Co  0.20547969  0.19498148  0.84584047     0.73900
C115        C  0.15725895  0.20752568  0.81758704    -0.07000
C116        C  0.21447295  0.31206900  0.88264482    -0.06600
N117        N  0.30458072  0.26693018  0.82837207    -0.26100
N118        N  0.16590565  0.25276480  0.88090001    -0.46900
H119        H  0.18308351  0.32538191  0.81948538     0.06800
C120        C  0.27278043  0.16722179  0.81233327    -0.07000
Cl121      Cl  0.24270743  0.24039020  0.84686496    -0.50000
C122        C  0.24794501  0.14836388  0.88517542     0.42600
H123        H  0.33014498  0.30562682  0.81671226     0.06800
N124        N  0.22076134  0.15829565  0.81349784    -0.46700
C125        C  0.25720983  0.34283809  0.19109304     0.42400
N126        N  0.26827805  0.30887260  0.17261992     0.01300
C127        C  0.16988757  0.21325497  0.12323235    -0.06600
H128        H  0.15796615  0.18916045  0.18649106     0.06800
C129        C  0.27660543  0.16006654  0.18479641    -0.06900
Co130      Co  0.21154855  0.28075233  0.15496516     0.74200
N131        N  0.18679020  0.22421817  0.17361883    -0.26100
Co132      Co  0.21046533  0.20067269  0.15510548     0.74100
C133        C  0.24877431  0.14495634  0.19219978     0.42500
N134        N  0.31574943  0.23139453  0.17317829     0.00900
N135        N  0.23563227  0.17774007  0.17341344     0.01000
N136        N  0.17169332  0.26549349  0.12336742    -0.47000
H137        H  0.20479999  0.33250514  0.18682748     0.06800
N138        N  0.18720086  0.25471365  0.17363387     0.01300
N139        N  0.23463869  0.17838146  0.13644781     0.01000
C140        C  0.24601962  0.15193455  0.11462141     0.42600
N141        N  0.31644084  0.26189433  0.17274907    -0.25600
C142        C  0.22555773  0.32189277  0.12301243    -0.06500
N143        N  0.28077247  0.33050204  0.18286707    -0.46700
N144        N  0.22226383  0.16185200  0.12372830    -0.46900
C145        C  0.25342210  0.33474350  0.11455124     0.42400
N146        N  0.18703741  0.25460757  0.13646799     0.01300
N147        N  0.31467113  0.26120042  0.13560604    -0.25600
N148        N  0.23765567  0.30659183  0.17324038    -0.26100
N149        N  0.31453521  0.23077999  0.13604776     0.00900
H150        H  0.33608561  0.29552808  0.11870459     0.06800
H151        H  0.29848683  0.16115248  0.11956046     0.06900
N152        N  0.18652337  0.22415851  0.13661198    -0.26100
N153        N  0.26623351  0.17992512  0.17335048    -0.25700
N154        N  0.26667806  0.30746356  0.13579246     0.01300
C155        C  0.15313521  0.24052433  0.19244166     0.42700
C156        C  0.33610570  0.27309020  0.18481464    -0.07000
N157        N  0.26522080  0.17998691  0.13631929    -0.25700
H158        H  0.30046421  0.15432978  0.18629295     0.06800
N159        N  0.16706244  0.26527933  0.18446030    -0.47000
H160        H  0.34237851  0.29728426  0.18704622     0.06800
C161        C  0.34197208  0.24365594  0.11426842     0.42500
C162        C  0.22850984  0.32692644  0.18473957    -0.06500
Co163      Co  0.29198979  0.28527071  0.15421010     0.73800
N164        N  0.33407766  0.22083229  0.18515252    -0.46700
C165        C  0.16025912  0.24077826  0.11440523     0.42800
N166        N  0.27804435  0.32501549  0.12321426    -0.46700
Co167      Co  0.29090390  0.20512508  0.15479310     0.73900
C168        C  0.27463700  0.16383339  0.12299662    -0.07000
C169        C  0.16577734  0.21320412  0.18497369    -0.06600
N170        N  0.23609168  0.30549428  0.13606056    -0.26100
N171        N  0.22427348  0.15658901  0.18426076    -0.46900
H172        H  0.16600825  0.18917104  0.11984878     0.06800
C173        C  0.33142252  0.27154853  0.12219493    -0.07000
Cl174      Cl  0.25120721  0.24297260  0.15488900    -0.50000
C175        C  0.34761595  0.24580207  0.19312174     0.42600
H176        H  0.20147782  0.32518782  0.12016957     0.06800
N177        N  0.33065778  0.21939400  0.12358759    -0.46700
C178        C  0.50330701  0.40933536  0.69089602     0.42400
N179        N  0.48945648  0.44230510  0.67243134     0.01300
C180        C  0.08161600  0.03746631  0.61980977    -0.06600
H181        H  0.09928966  0.06467329  0.68510338     0.06800
C182        C  0.48449579  0.09353685  0.68543111    -0.06900
Co183      Co  0.04370195  0.46988420  0.65306070     0.74200
N184        N  0.07178964  0.02925889  0.67162556    -0.26100
Co185      Co  0.04629167  0.05272942  0.65329769     0.74100
C186        C  0.51336574  0.10930495  0.69158168     0.42500
N187        N  0.44239943  0.02278517  0.67424781     0.00900
N188        N  0.02369948  0.07657429  0.67224555     0.01000
N189        N  0.07851051  0.48374832  0.62038749    -0.47000
H190        H  0.05474606  0.41827778  0.68414444     0.06800
N191        N  0.07018204  0.49596099  0.67086922     0.01300
N192        N  0.01962081  0.07478408  0.63507394     0.01000
C193        C  0.50363777  0.10089938  0.61389263     0.42600
N194        N  0.44031484  0.48824361  0.67375395    -0.25600
C195        C  0.02699186  0.42942668  0.62169609    -0.06500
N196        N  0.47853565  0.42130362  0.68345787    -0.46700
N197        N  0.02936526  0.09101946  0.62157797    -0.46900
C198        C  0.49878957  0.41712595  0.61336921     0.42400
N199        N  0.06558352  0.49548037  0.63386415     0.01300
N200        N  0.43811324  0.48872523  0.63650594    -0.25600
N201        N  0.02006709  0.44441352  0.67192341    -0.26100
N202        N  0.44029674  0.02343991  0.63720561     0.00900
H203        H  0.41801144  0.45472708  0.61895721     0.06800
H204        H  0.45271337  0.09237200  0.62181241     0.06900
N205        N  0.06760178  0.02804976  0.63431281    -0.26100
N206        N  0.49315816  0.07398445  0.67344989    -0.25700
N207        N  0.48672630  0.44288220  0.63533467     0.01300
C208        C  0.10604802  0.01323891  0.69053527     0.42700
C209        C  0.42012684  0.47704170  0.68549875    -0.07000
N210        N  0.48919653  0.07354624  0.63653689    -0.25700
H211        H  0.46082878  0.09861640  0.68806500     0.06800
N212        N  0.09006184  0.48523656  0.68203362    -0.47000
H213        H  0.41243665  0.45296571  0.68699387     0.06800
C214        C  0.41259928  0.01144307  0.61513802     0.42500
C215        C  0.03088101  0.42420946  0.68305436    -0.06500
Co216      Co  0.46314971  0.46500951  0.65455244     0.73800
N217        N  0.42319542  0.03345492  0.68554954    -0.46700
C218        C  0.08954510  0.00889033  0.61144726     0.42800
N219        N  0.47459132  0.42606001  0.62258030    -0.46700
Co220      Co  0.46593145  0.04876728  0.65554258     0.73900
C221        C  0.47712571  0.08955862  0.62386754    -0.07000
C222        C  0.09266158  0.04047535  0.68311771    -0.06600
N223        N  0.01729195  0.44502286  0.63506295    -0.26100
N224        N  0.03662894  0.09771675  0.68269415    -0.46900
H225        H  0.08465138  0.06110446  0.61540258     0.06800
C226        C  0.42144436  0.47855412  0.62291606    -0.07000
Cl227      Cl  0.50536036  0.01068461  0.65466152    -0.50000
C228        C  0.40961174  0.00876132  0.69370875     0.42600
H229        H  0.05089301  0.42653679  0.61844409     0.06800
N230        N  0.42416534  0.03525665  0.62470209    -0.46700
C231        C  0.09135654  0.00350850  0.30754443     0.42400
N232        N  0.06078896  0.01983867  0.32640443     0.01300
C233        C  0.46644937  0.43367704  0.38027501    -0.06600
H234        H  0.43479037  0.42228200  0.31682194     0.06800
C235        C  0.41637995  0.04030409  0.31726451    -0.06900
Co236      Co  0.03290785  0.46862550  0.34614803     0.74200
N237        N  0.47321302  0.44656226  0.32959174    -0.26100
Co238      Co  0.45363367  0.47310625  0.34823735     0.74100
C239        C  0.39984578  0.01281953  0.31014462     0.42500
N240        N  0.48856659  0.07553469  0.32774957     0.00900
N241        N  0.43024357  0.49825833  0.33015748     0.01000
N242        N  0.01854207  0.43187067  0.37909073    -0.47000
H243        H  0.07944226  0.45519114  0.31329641     0.06800
N244        N  0.00351385  0.44464019  0.32875534     0.01300
N245        N  0.43602269  0.50016526  0.36700989     0.01000
C246        C  0.41312045  0.01475770  0.38991170     0.42600
N247        N  0.01865121  0.07241092  0.32642012    -0.25600
C248        C  0.07699040  0.48342139  0.37686140    -0.06500
N249        N  0.08158739  0.02914332  0.31492812    -0.46700
N250        N  0.42268752  0.48945632  0.38104286    -0.46900
C251        C  0.09272611  0.00993111  0.38426333     0.42400
N252        N  0.00765300  0.44743484  0.36603786     0.01300
N253        N  0.02323835  0.07410229  0.36344174    -0.25600
N254        N  0.05739010  0.49112203  0.32649989    -0.26100
N255        N  0.49308534  0.07632268  0.36497679     0.00900
H256        H  0.06265300  0.09167411  0.37796043     0.06800
H257        H  0.42578120  0.06625628  0.38434683     0.06900
N258        N  0.47734433  0.44895673  0.36652849    -0.26100
N259        N  0.43432075  0.02953707  0.32962286    -0.25700
N260        N  0.06459969  0.02248969  0.36317026     0.01300
C261        C  0.48502892  0.41239447  0.31001746     0.42700
C262        C  0.02950135  0.08984234  0.31335361    -0.07000
N263        N  0.43825208  0.03104410  0.36675453    -0.25700
H264        H  0.41384514  0.06441911  0.31436447     0.06800
N265        N  0.01158449  0.42443337  0.31723821    -0.47000
H266        H  0.05360220  0.09365003  0.30986471     0.06800
C267        C  0.51323117  0.10189458  0.38612803     0.42500
C268        C  0.07501267  0.47935204  0.31452973    -0.06500
Co269      Co  0.04225347  0.04762491  0.34470692     0.73800
N270        N  0.47802279  0.09482532  0.31629911    -0.46700
C271        C  0.49382331  0.42260243  0.38867907     0.42800
N272        N  0.08407036  0.03403464  0.37488199    -0.46700
Co273      Co  0.46300014  0.05371499  0.34730351     0.73900
C274        C  0.42538534  0.04219233  0.38075220    -0.07000
C275        C  0.45952742  0.42695416  0.31830891    -0.06600
N276        N  0.06111928  0.49344126  0.36346481    -0.26100
N277        N  0.40896782  0.48696097  0.31923935    -0.46900
H278        H  0.44238950  0.43108845  0.38398243     0.06800
C279        C  0.03783603  0.08971222  0.37604023    -0.07000
Cl280      Cl  0.49728891  0.01059922  0.34673581    -0.50000
C281        C  0.50239850  0.10429294  0.30655395     0.42600
H282        H  0.07811008  0.45956524  0.38072091     0.06800
N283        N  0.48599652  0.09282605  0.37845381    -0.46700
N284        N  0.02391203  0.21346958  0.50015940    -0.36700
N285        N  0.02327374  0.26130558  0.47425179    -0.57200
N286        N  0.02759467  0.30886395  0.49996638    -0.36700
N287        N  0.02587056  0.26111144  0.52598540    -0.57200
C288        C  0.01368320  0.19635150  0.48667131     0.26900
C289        C  0.01860333  0.19610529  0.51425558     0.26900
C290        C  0.02124174  0.32572152  0.48603434     0.26900
C291        C  0.02003134  0.32540653  0.51369700     0.26900
C292        C  0.02484357  0.23614059  0.46431515     0.35500
C293        C  0.03009211  0.28613402  0.46422351     0.35500
C294        C  0.03212728  0.23662689  0.53580041     0.35500
C295        C  0.03095704  0.28644868  0.53579382     0.35500
C296        C  0.00226205  0.16748623  0.49225352    -0.21900
C297        C  0.00550502  0.16728161  0.50968854    -0.21900
C298        C  0.00995784  0.35353451  0.49094290    -0.21900
C299        C  0.00905822  0.35327530  0.50843102    -0.21900
C300        C  0.03279790  0.24501279  0.44789580    -0.23000
C301        C  0.03630043  0.27669246  0.44786211    -0.23000
C302        C  0.04139343  0.24648816  0.55189237    -0.23000
C303        C  0.04053774  0.27807257  0.55190213    -0.23000
C304        C  0.01614407  0.20558069  0.46945102    -0.18300
C305        C  0.02623753  0.20541317  0.53103003    -0.18300
C306        C  0.02458160  0.31671591  0.53081234    -0.18300
C307        C  0.02664354  0.31703210  0.46908935    -0.18300
H308        H  0.99287650  0.14844547  0.48455894     0.14600
H309        H  0.99887677  0.14814905  0.51804774     0.14600
H310        H  0.00307524  0.37207693  0.48278596     0.14600
H311        H  0.00146075  0.37163422  0.51636671     0.14600
H312        H  0.03513920  0.23026473  0.43698039     0.12800
H313        H  0.04160275  0.29114080  0.43689200     0.12800
H314        H  0.04730910  0.23233812  0.56264515     0.12800
H315        H  0.04586327  0.29310408  0.56261465     0.12800
H316        H  0.03664552  0.23459513  0.49971482     0.26100
H317        H  0.03955461  0.28880005  0.50009513     0.26100
N318        N  0.20327580  0.50033329  0.49853423    -0.36700
N319        N  0.25127907  0.50937613  0.47341052    -0.57200
N320        N  0.29893143  0.50905131  0.50017925    -0.36700
N321        N  0.25113074  0.50469316  0.52523715    -0.57200
C322        C  0.18563104  0.50286462  0.48442327     0.26900
C323        C  0.18564540  0.50705557  0.51197674     0.26900
C324        C  0.31671396  0.51910176  0.48701253     0.26900
C325        C  0.31684340  0.51073906  0.51433054     0.26900
C326        C  0.22727973  0.50181063  0.46280874     0.35500
C327        C  0.27701054  0.51166642  0.46373840     0.35500
C328        C  0.22546440  0.50235460  0.53493783     0.35500
C329        C  0.27533096  0.49972094  0.53564834     0.35500
C330        C  0.15598982  0.50995950  0.48896212    -0.21900
C331        C  0.15607979  0.51291782  0.50635358    -0.21900
C332        C  0.34658238  0.52687938  0.49283181    -0.21900
C333        C  0.34673545  0.52126241  0.51005458    -0.21900
C334        C  0.23779727  0.49954101  0.44628983    -0.23000
C335        C  0.26921496  0.50611293  0.44684737    -0.23000
C336        C  0.23342541  0.49646256  0.55167033    -0.23000
C337        C  0.26493524  0.49449328  0.55209475    -0.23000
C338        C  0.19571689  0.49952601  0.46754773    -0.18300
C339        C  0.19506625  0.50709033  0.52921469    -0.18300
C340        C  0.30691103  0.50237831  0.53088875    -0.18300
C341        C  0.30748577  0.51916595  0.46974864    -0.18300
H342        H  0.13655037  0.51345170  0.48059000     0.14600
H343        H  0.13653825  0.51868013  0.51398387     0.14600
H344        H  0.36641622  0.53510748  0.48539036     0.14600
H345        H  0.36657230  0.52471241  0.51843813     0.14600
H346        H  0.22421281  0.49425937  0.43495293     0.12800
H347        H  0.28457370  0.50650162  0.43603493     0.12800
H348        H  0.21812237  0.49388070  0.56247703     0.12800
H349        H  0.27865843  0.49061076  0.56335576     0.12800
H350        H  0.22524062  0.49201820  0.49898975     0.26100
H351        H  0.27688637  0.49834770  0.49927202     0.26100
C352        C  0.00326609  0.26201250  0.25138552    -0.02500
C353        C  0.00445084  0.29427947  0.26029533    -0.05300
C354        C  0.03013130  0.31618077  0.25915520    -0.05200
C355        C  0.03124957  0.34368183  0.26842335    -0.23400
C356        C  0.00638504  0.35080098  0.27866933     0.18800
C357        C  0.47935178  0.33076984  0.27880155     0.16000
C358        C  0.47831822  0.30318275  0.26940944    -0.18400
C359        C  0.45402961  0.33831928  0.28866001    -0.20200
C360        C  0.45573159  0.36511750  0.29855244    -0.12800
C361        C  0.48286492  0.38478337  0.29890297     0.03900
C362        C  0.00809683  0.37756403  0.28879591    -0.24900
H363        H  0.04973221  0.31256120  0.25116414     0.08900
H364        H  0.05175776  0.35933545  0.26764186     0.12600
H365        H  0.45764168  0.28768631  0.26984223     0.12500
H366        H  0.43303907  0.32328047  0.28890597     0.12200
H367        H  0.43598796  0.37000465  0.30624722     0.12800
H368        H  0.02902090  0.39274204  0.28882871     0.14700
C369        C  0.00012629  0.23504619  0.26466768    -0.05300
C370        C  0.49887976  0.23999888  0.28244467    -0.05200
C371        C  0.49748424  0.21540860  0.29397946    -0.23400
C372        C  0.49902951  0.18504196  0.28834361     0.18800
C373        C  0.00179750  0.17934652  0.27079532     0.16000
C374        C  0.00182984  0.20409311  0.25915587    -0.18400
C375        C  0.00511651  0.14900328  0.26522886    -0.20200
C376        C  0.00576361  0.12467085  0.27695717    -0.12800
C377        C  0.50232021  0.13014788  0.29435491     0.03900
C378        C  0.49873115  0.16035485  0.30000866    -0.24900
H379        H  0.49981617  0.26275773  0.28791148     0.08900
H380        H  0.49617829  0.22030545  0.30743568     0.12600
H381        H  0.00386370  0.19942352  0.24570627     0.12500
H382        H  0.00754689  0.14413917  0.25183466     0.12200
H383        H  0.00858276  0.10145552  0.27244197     0.12800
H384        H  0.49637279  0.16465419  0.31348431     0.14700
C385        C  0.51712467  0.11752384  0.40283272    -0.05300
C386        C  0.04637676  0.11907595  0.41088084    -0.05200
C387        C  0.05121878  0.13458880  0.42622740    -0.23400
C388        C  0.02700217  0.14913967  0.43388481     0.18800
C389        C  0.49721378  0.14734238  0.42620623     0.16000
C390        C  0.49238668  0.13132413  0.41075305    -0.18400
C391        C  0.47315824  0.16242156  0.43389393    -0.20200
C392        C  0.47896130  0.18012263  0.44855418    -0.12800
C393        C  0.00872157  0.18258896  0.45587706     0.03900
C394        C  0.03245312  0.16643731  0.44875296    -0.24900
H395        H  0.06583241  0.10837469  0.40534606     0.08900
H396        H  0.07412328  0.13565254  0.43195908     0.12600
H397        H  0.46973498  0.13027684  0.40471804     0.12500
H398        H  0.45017291  0.16136272  0.42827300     0.12200
H399        H  0.46053615  0.19278909  0.45387985     0.12800
H400        H  0.05550726  0.16872512  0.45430489     0.14700
C401        C  0.02547533  0.34067268  0.45549184    -0.05300
C402        C  0.05272946  0.35672172  0.44989888    -0.05200
C403        C  0.05194201  0.37691549  0.43600875    -0.23400
C404        C  0.02385807  0.38116632  0.42750474     0.18800
C405        C  0.49624780  0.36562454  0.43343533     0.16000
C406        C  0.49725627  0.34546973  0.44737518    -0.18400
C407        C  0.46814291  0.36996068  0.42509874    -0.20200
C408        C  0.46743130  0.38889700  0.41074541    -0.12800
C409        C  0.49482085  0.40374162  0.40437233     0.03900
C410        C  0.02297655  0.40009517  0.41297314    -0.24900
H411        H  0.07467243  0.35304024  0.45606029     0.08900
H412        H  0.07333552  0.38872783  0.43172301     0.12600
H413        H  0.47626158  0.33293054  0.45171700     0.12500
H414        H  0.44674879  0.35835151  0.42953429     0.12200
H415        H  0.44540679  0.39130536  0.40443311     0.12800
H416        H  0.04418476  0.41172081  0.40828031     0.14700
C417        C  0.11316790  0.01282719  0.39928102    -0.05300
C418        C  0.13161031  0.04024773  0.40188742    -0.05200
C419        C  0.15107437  0.04349685  0.41604240    -0.23400
C420        C  0.15216648  0.01946720  0.42791519     0.18800
C421        C  0.13337267  0.99187675  0.42555622     0.16000
C422        C  0.11296292  0.48880683  0.41112544    -0.18400
C423        C  0.13547050  0.46617305  0.43644899    -0.20200
C424        C  0.15560766  0.46893255  0.45042189    -0.12800
C425        C  0.17210426  0.49715605  0.45382114     0.03900
C426        C  0.17202884  0.02244653  0.44200160    -0.24900
H427        H  0.13118436  0.05914733  0.39287111     0.08900
H428        H  0.16530805  0.06477304  0.41768592     0.12600
H429        H  0.10103114  0.46673483  0.40817551     0.12500
H430        H  0.12334120  0.44403886  0.43383596     0.12200
H431        H  0.15894833  0.44891779  0.45833929     0.12800
H432        H  0.18688894  0.04332008  0.44372259     0.14700
C433        C  0.39900252  0.01248476  0.40683222    -0.05300
C434        C  0.39863289  0.48299873  0.41525655    -0.05200
C435        C  0.38148241  0.47937457  0.43008839    -0.23400
C436        C  0.36741387  0.50460692  0.43697298     0.18800
C437        C  0.37010010  0.03472216  0.42961114     0.16000
C438        C  0.38654893  0.03818484  0.41435767    -0.18400
C439        C  0.35526994  0.05960845  0.43652130    -0.20200
C440        C  0.33609489  0.05498831  0.45063261    -0.12800
C441        C  0.33176877  0.52515512  0.45691082     0.03900
C442        C  0.34752094  0.50037558  0.45079010    -0.24900
H443        H  0.40841912  0.46288933  0.40982837     0.08900
H444        H  0.37829133  0.45663482  0.43581342     0.12600
H445        H  0.38824810  0.06039417  0.40795916     0.12500
H446        H  0.35737638  0.08221362  0.43057369     0.12200
H447        H  0.32334109  0.07390406  0.45528924     0.12800
H448        H  0.34301008  0.47756413  0.45628339     0.14700
C449        C  0.17203344  0.51346816  0.54232036    -0.05300
C450        C  0.16824183  0.04275353  0.54807720    -0.05200
C451        C  0.15003639  0.04855291  0.56214123    -0.23400
C452        C  0.13408400  0.02401945  0.57065784     0.18800
C453        C  0.13469135  0.49447672  0.56336280     0.16000
C454        C  0.15283059  0.48932538  0.54907692    -0.18400
C455        C  0.11713891  0.46999703  0.57094864    -0.20200
C456        C  0.10145263  0.47468057  0.58605496    -0.12800
C457        C  0.10378024  0.00435926  0.59473686     0.03900
C458        C  0.11806651  0.02927050  0.58572333    -0.24900
H459        H  0.18159025  0.06173605  0.54208448     0.08900
H460        H  0.14933757  0.07203251  0.56671607     0.12600
H461        H  0.15330868  0.46633932  0.54374009     0.12500
H462        H  0.11632132  0.44703771  0.56550092     0.12200
H463        H  0.08880435  0.45514324  0.59193433     0.12800
H464        H  0.11781979  0.05248810  0.59074061     0.14700
C465        C  0.33042219  0.49778086  0.54435748    -0.05300
C466        C  0.33514970  0.46779504  0.55018219    -0.05200
C467        C  0.35313092  0.46322170  0.56470333    -0.23400
C468        C  0.36655498  0.48863939  0.57367084     0.18800
C469        C  0.35712887  0.02409987  0.57024683     0.16000
C470        C  0.33778293  0.02813377  0.55609056    -0.18400
C471        C  0.36590950  0.04906308  0.58082437    -0.20200
C472        C  0.38413809  0.04470105  0.59524117    -0.12800
C473        C  0.39386635  0.01527658  0.59948588     0.03900
C474        C  0.38287058  0.48444221  0.58896664    -0.24900
H475        H  0.32385967  0.44797725  0.54383236     0.08900
H476        H  0.35576147  0.43987783  0.56919557     0.12600
H477        H  0.32918644  0.05059375  0.55335975     0.12500
H478        H  0.35845143  0.07194453  0.57803813     0.12200
H479        H  0.39034423  0.06445501  0.60321820     0.12800
H480        H  0.38523905  0.46131402  0.59385273     0.14700
C481        C  0.02557034  0.18174594  0.54464609    -0.05300
C482        C  0.05110708  0.16393010  0.54737955    -0.05200
C483        C  0.05175296  0.14388040  0.56132121    -0.23400
C484        C  0.02682304  0.14145372  0.57268127     0.18800
C485        C  0.50058721  0.15869073  0.56961443     0.16000
C486        C  0.50016435  0.17875784  0.55563767    -0.18400
C487        C  0.47548568  0.15605980  0.58076737    -0.20200
C488        C  0.47652481  0.13698579  0.59502832    -0.12800
C489        C  0.50278732  0.12040134  0.59850138     0.03900
C490        C  0.02782253  0.12252334  0.58718426    -0.24900
H491        H  0.07084507  0.16619862  0.53896464     0.08900
H492        H  0.07193838  0.13072097  0.56338973     0.12600
H493        H  0.48049196  0.19264153  0.55348021     0.12500
H494        H  0.45518133  0.16899835  0.57856373     0.12200
H495        H  0.45691220  0.13579096  0.60352782     0.12800
H496        H  0.04797518  0.10949251  0.58966327     0.14700
C497        C  0.02237112  0.34027134  0.54430085    -0.05300
C498        C  0.04659572  0.36291960  0.54667705    -0.05200
C499        C  0.04615260  0.38328615  0.56036950    -0.23400
C500        C  0.02135732  0.38132532  0.57182683     0.18800
C501        C  0.49630225  0.35928164  0.56916615     0.16000
C502        C  0.49703543  0.33877112  0.55542408    -0.18400
C503        C  0.47129695  0.35778822  0.58050346    -0.20200
C504        C  0.47151413  0.37739286  0.59460689    -0.12800
C505        C  0.99690230  0.39842650  0.59770483     0.03900
C506        C  0.02153953  0.40059902  0.58609324    -0.24900
H507        H  0.06624128  0.36422393  0.53817649     0.08900
H508        H  0.06544185  0.40019183  0.56217473     0.12600
H509        H  0.47832303  0.32123719  0.55354008     0.12500
H510        H  0.45180736  0.34116564  0.57860183     0.12200
H511        H  0.45230740  0.37543333  0.60339017     0.12800
H512        H  0.04102514  0.41713333  0.58821517     0.14700
C513        C  0.12261037  0.24138331  0.20066362    -0.05300
C514        C  0.09533088  0.24046113  0.19086347    -0.05200
C515        C  0.06654207  0.24356546  0.19857193    -0.23400
C516        C  0.06462156  0.24774364  0.21622620     0.18800
C517        C  0.09198227  0.24791391  0.22615344     0.16000
C518        C  0.12078132  0.24475014  0.21832063    -0.18400
C519        C  0.09016846  0.25149481  0.24374730    -0.20200
C520        C  0.06174582  0.25567523  0.25143915    -0.12800
C521        C  0.03410321  0.25709699  0.24182208     0.03900
C522        C  0.03593793  0.25201619  0.22406550    -0.24900
H523        H  0.09641273  0.23787126  0.17720471     0.08900
H524        H  0.04586777  0.24317977  0.19069974     0.12600
H525        H  0.14184374  0.24540772  0.22590215     0.12500
H526        H  0.11082805  0.25127315  0.25160222     0.12200
H527        H  0.06133272  0.25849620  0.26509564     0.12800
H528        H  0.01535934  0.25115690  0.21617813     0.14700
C529        C  0.37371041  0.24461958  0.20536474    -0.05300
C530        C  0.37565811  0.21907353  0.21624577    -0.05200
C531        C  0.40047359  0.21750728  0.22768250    -0.23400
C532        C  0.42436608  0.24102771  0.22806817     0.18800
C533        C  0.42289026  0.26648849  0.21693124     0.16000
C534        C  0.39729008  0.26848586  0.20592726    -0.18400
C535        C  0.44726646  0.28930448  0.21679380    -0.20200
C536        C  0.47299221  0.28682965  0.22743600    -0.12800
C537        C  0.47494087  0.26194211  0.23899248     0.03900
C538        C  0.44973805  0.23933257  0.23930097    -0.24900
H539        H  0.35777294  0.20041110  0.21600365     0.08900
H540        H  0.40121835  0.19764967  0.23603719     0.12600
H541        H  0.39626020  0.28811623  0.19742702     0.12500
H542        H  0.44663624  0.30897202  0.20829490     0.12200
H543        H  0.49153162  0.30479792  0.22681449     0.12800
H544        H  0.44929835  0.22031116  0.24818553     0.14700
C545        C  0.24232512  0.13418276  0.09862752    -0.05300
C546        C  0.21254315  0.12711674  0.09186380    -0.05200
C547        C  0.20859833  0.11029683  0.07682001    -0.23400
C548        C  0.23437514  0.10006256  0.06829851     0.18800
C549        C  0.26447210  0.10705595  0.07495359     0.16000
C550        C  0.26825565  0.12417624  0.09002240    -0.18400
C551        C  0.29023179  0.09628094  0.06659217    -0.20200
C552        C  0.28613925  0.07796399  0.05208320    -0.12800
C553        C  0.25632475  0.07061347  0.04556310     0.03900
C554        C  0.23053153  0.08222658  0.05350673    -0.24900
H555        H  0.19219267  0.13459767  0.09822577     0.08900
H556        H  0.18536676  0.10504764  0.07194251     0.12600
H557        H  0.29134043  0.12933266  0.09509863     0.12500
H558        H  0.31345262  0.10135301  0.07151796     0.12200
H559        H  0.30614942  0.06879460  0.04616875     0.12800
H560        H  0.20747293  0.07612677  0.04858263     0.14700
C561        C  0.23522445  0.41459468  0.04541676    -0.05300
C562        C  0.21020181  0.39263298  0.04719567    -0.05200
C563        C  0.20901486  0.37220499  0.06098317    -0.23400
C564        C  0.23285451  0.37350753  0.07319069     0.18800
C565        C  0.25862756  0.39495230  0.07119048     0.16000
C566        C  0.25965622  0.41531970  0.05730015    -0.18400
C567        C  0.28270169  0.39591505  0.08324212    -0.20200
C568        C  0.28115874  0.37594783  0.09722734    -0.12800
C569        C  0.25530107  0.35513618  0.09953055     0.03900
C570        C  0.23122436  0.35395317  0.08744256    -0.24900
H571        H  0.19124738  0.39185111  0.03811183     0.08900
H572        H  0.18923530  0.35573629  0.06224804     0.12600
H573        H  0.27905853  0.43223148  0.05587804     0.12500
H574        H  0.30263849  0.41216705  0.08188752     0.12200
H575        H  0.29992158  0.37716953  0.10643478     0.12800
H576        H  0.21137796  0.33765259  0.08904465     0.14700
C577        C  0.26188223  0.07314721  0.95645666    -0.05300
C578        C  0.29129498  0.07814968  0.94913153    -0.05200
C579        C  0.29513742  0.09587793  0.93428887    -0.23400
C580        C  0.26945520  0.10830517  0.92638902     0.18800
C581        C  0.24000190  0.10422623  0.93411943     0.16000
C582        C  0.23652186  0.08709949  0.94922082    -0.18400
C583        C  0.21416495  0.11596697  0.92617504    -0.20200
C584        C  0.21713643  0.13057357  0.91040578    -0.12800
C585        C  0.24606314  0.13416585  0.90232412     0.03900
C586        C  0.27237756  0.12358170  0.91058898    -0.24900
H587        H  0.31097482  0.06720433  0.95450753     0.08900
H588        H  0.31790544  0.09875720  0.92861049     0.12600
H589        H  0.21374027  0.08283818  0.95476204     0.12500
H590        H  0.19146195  0.11312280  0.93194089     0.12200
H591        H  0.19656405  0.13882551  0.90444064     0.12800
H592        H  0.29480538  0.12621321  0.90450493     0.14700
C593        C  0.24548793  0.34533032  0.90613693    -0.05300
C594        C  0.27449345  0.35975882  0.91046213    -0.05200
C595        C  0.27749796  0.38017125  0.92411368    -0.23400
C596        C  0.25156075  0.38642899  0.93376561     0.18800
C597        C  0.22239712  0.37131374  0.92991429     0.16000
C598        C  0.21955143  0.35080148  0.91612517    -0.18400
C599        C  0.19652250  0.37745070  0.93974655    -0.20200
C600        C  0.19940892  0.39889526  0.95298647    -0.12800
C601        C  0.22814361  0.41444509  0.95653453     0.03900
C602        C  0.25422142  0.40791591  0.94703403    -0.24900
H603        H  0.29488022  0.35571334  0.90307267     0.08900
H604        H  0.30003948  0.39138029  0.92697635     0.12600
H605        H  0.19713949  0.33951763  0.91307571     0.12500
H606        H  0.17402782  0.36599637  0.93705387     0.12200
H607        H  0.17916521  0.40378068  0.96029909     0.12800
H608        H  0.27640644  0.41994564  0.94986569     0.14700
C609        C  0.51609308  0.13769980  0.70217320    -0.05300
C610        C  0.04160199  0.15938841  0.70083585    -0.05200
C611        C  0.04248864  0.18722964  0.71002466    -0.23400
C612        C  0.01803590  0.19370212  0.72089196     0.18800
C613        C  0.49311759  0.17130117  0.72273847     0.16000
C614        C  0.49219384  0.14374690  0.71339106    -0.18400
C615        C  0.46940546  0.17654281  0.73402123    -0.20200
C616        C  0.46964958  0.20396888  0.74309851    -0.12800
C617        C  0.99295366  0.22824365  0.74075450     0.03900
C618        C  0.01790034  0.22195597  0.72991524    -0.24900
H619        H  0.06046629  0.15520940  0.69233630     0.08900
H620        H  0.06211016  0.20379475  0.70848997     0.12600
H621        H  0.47270639  0.12695914  0.71484644     0.12500
H622        H  0.45065195  0.15913262  0.73603802     0.12200
H623        H  0.45131749  0.20521830  0.75225011     0.12800
H624        H  0.03711500  0.23905762  0.72852620     0.14700
C625        C  0.50167897  0.37880258  0.69896030    -0.05300
C626        C  0.50388811  0.35192518  0.68928910    -0.05200
C627        C  0.50169941  0.32280743  0.69713237    -0.23400
C628        C  0.49756265  0.32031336  0.71477464     0.18800
C629        C  0.99531263  0.34758316  0.72441159     0.16000
C630        C  0.99720799  0.37655073  0.71644696    -0.18400
C631        C  0.99127316  0.34561957  0.74190387    -0.20200
C632        C  0.99023696  0.31706796  0.74992746    -0.12800
C633        C  0.99327225  0.28925469  0.74079937     0.03900
C634        C  0.49595904  0.29122978  0.72295281    -0.24900
H635        H  0.50714363  0.35352295  0.67567799     0.08900
H636        H  0.50345489  0.30233073  0.68944440     0.12600
H637        H  0.99538433  0.39741216  0.72384680     0.12500
H638        H  0.98935835  0.36624251  0.74946650     0.12200
H639        H  0.98788287  0.31662970  0.76361723     0.12800
H640        H  0.49705902  0.27064914  0.71536091     0.14700
C641        C  0.02255717  0.25974177  0.76288313    -0.05300
C642        C  0.04666825  0.28348767  0.76133235    -0.05200
C643        C  0.07328564  0.28399817  0.77134244    -0.23400
C644        C  0.07810685  0.25983161  0.78251879     0.18800
C645        C  0.05563372  0.23480728  0.78373149     0.16000
C646        C  0.02792892  0.23509259  0.77413758    -0.18400
C647        C  0.06171955  0.20964486  0.79423300    -0.20200
C648        C  0.08985292  0.20924953  0.80317376    -0.12800
C649        C  0.11195835  0.23439267  0.80216024     0.03900
C650        C  0.10569901  0.25982854  0.79199956    -0.24900
H651        H  0.04605293  0.30186531  0.75209794     0.08900
H652        H  0.09071284  0.30290838  0.76985301     0.12600
H653        H  0.01077069  0.21584694  0.77513084     0.12500
H654        H  0.04496215  0.19009248  0.79533439     0.12200
H655        H  0.09411987  0.18946656  0.81108045     0.12800
H656        H  0.12279182  0.27918060  0.79105403     0.14700
C657        C  0.46175981  0.25932374  0.76108457    -0.05300
C658        C  0.43438621  0.26124076  0.75120471    -0.05200
C659        C  0.40540342  0.26209997  0.75862253    -0.23400
C660        C  0.40256958  0.26097570  0.77622810     0.18800
C661        C  0.42940668  0.25951105  0.78653539     0.16000
C662        C  0.45888303  0.25917593  0.77895581    -0.18400
C663        C  0.42612099  0.25806723  0.80425803    -0.20200
C664        C  0.39662537  0.25753847  0.81155964    -0.12800
C665        C  0.37011070  0.25884213  0.80126986     0.03900
C666        C  0.37316868  0.26084377  0.78365370    -0.24900
H667        H  0.43558579  0.26169309  0.73746539     0.08900
H668        H  0.38513087  0.26329237  0.75053056     0.12600
H669        H  0.47913008  0.25881811  0.78704651     0.12500
H670        H  0.44626045  0.25684590  0.81243724     0.12200
H671        H  0.39441259  0.25574883  0.82522994     0.12800
H672        H  0.35259030  0.26159533  0.77573834     0.14700
C673        C  0.28754520  0.99955854  0.74251249    -0.05300
C674        C  0.31254759  0.50064899  0.75206369    -0.05200
C675        C  0.34179368  0.50345715  0.74455155    -0.23400
C676        C  0.34466550  0.50350848  0.72687050     0.18800
C677        C  0.31996875  0.00716134  0.71710183     0.16000
C678        C  0.29051071  0.00418681  0.72476165    -0.18400
C679        C  0.32286469  0.01004044  0.69939688    -0.20200
C680        C  0.35215654  0.01111844  0.69182839    -0.12800
C681        C  0.37899548  0.00938233  0.70181376     0.03900
C682        C  0.37414202  0.50469495  0.71922800    -0.24900
H683        H  0.31140205  0.49967722  0.76579332     0.08900
H684        H  0.36222661  0.50493744  0.75262547     0.12600
H685        H  0.27026091  0.00509789  0.71671356     0.12500
H686        H  0.30246419  0.01084742  0.69137918     0.12200
H687        H  0.35388146  0.01275746  0.67813115     0.12800
H688        H  0.39490598  0.50550823  0.72705672     0.14700
C689        C  0.22756840  0.99188314  0.73927488    -0.05300
C690        C  0.22111107  0.46545938  0.72712044    -0.05200
C691        C  0.19613397  0.46368356  0.71558409    -0.23400
C692        C  0.17395247  0.48597265  0.71567517     0.18800
C693        C  0.17993045  0.01285859  0.72775425     0.16000
C694        C  0.20389605  0.01310620  0.73994845    -0.18400
C695        C  0.15872067  0.03607354  0.72768202    -0.20200
C696        C  0.13520488  0.03622374  0.71540789    -0.12800
C697        C  0.13161474  0.01262149  0.70327259     0.03900
C698        C  0.14952275  0.48545520  0.70359649    -0.24900
H699        H  0.23807370  0.44817337  0.72641997     0.08900
H700        H  0.19453235  0.44515523  0.70636598     0.12600
H701        H  0.20352275  0.03018061  0.74984280     0.12500
H702        H  0.16058360  0.05444338  0.73699700     0.12200
H703        H  0.11938573  0.05461359  0.71560265     0.12800
H704        H  0.14756005  0.46739278  0.69410012     0.14700
C705        C  0.25469256  0.01988498  0.76482104    -0.05300
C706        C  0.25400992  0.01539397  0.78264480    -0.05200
C707        C  0.25143530  0.04015793  0.79377359    -0.23400
C708        C  0.25052531  0.07036966  0.78757596     0.18800
C709        C  0.25354762  0.07585069  0.76996729     0.16000
C710        C  0.25624608  0.05085638  0.75884656    -0.18400
C711        C  0.25361966  0.10627240  0.76377197    -0.20200
C712        C  0.25055179  0.13094418  0.77494013    -0.12800
C713        C  0.24698041  0.12557486  0.79241018     0.03900
C714        C  0.24716045  0.09525423  0.79870836    -0.24900
H715        H  0.25590712  0.99296763  0.78835363     0.08900
H716        H  0.25028308  0.03562830  0.80730698     0.12600
H717        H  0.25839960  0.05530864  0.74533188     0.12500
H718        H  0.25611661  0.11098748  0.75030968     0.12200
H719        H  0.25105568  0.15429085  0.76995587     0.12800
H720        H  0.24515238  0.09116771  0.81226287     0.14700
C721        C  0.23135295  0.36831724  0.80168899    -0.05300
C722        C  0.20477749  0.38550838  0.80169803    -0.05200
C723        C  0.20304590  0.41171816  0.79133804    -0.23400
C724        C  0.22771180  0.42102952  0.78060048     0.18800
C725        C  0.25392719  0.40319970  0.78009728     0.16000
C726        C  0.25575425  0.37722250  0.79072575    -0.18400
C727        C  0.27795540  0.41158254  0.76893112    -0.20200
C728        C  0.27714642  0.43842069  0.75916293    -0.12800
C729        C  0.25282599  0.45870575  0.76074252     0.03900
C730        C  0.22701999  0.44819562  0.77069739    -0.24900
H731        H  0.18554597  0.37913474  0.81000291     0.08900
H732        H  0.18259338  0.42488897  0.79188168     0.12600
H733        H  0.27609400  0.36383154  0.79040976     0.12500
H734        H  0.29764116  0.39744867  0.76781768     0.12200
H735        H  0.29610353  0.44289352  0.75047634     0.12800
H736        H  0.20716512  0.46219117  0.77144992     0.14700
C737        C  0.07517384  0.22444046  0.04598404    -0.05300
C738        C  0.07675240  0.19560281  0.05396999    -0.05200
C739        C  0.09500491  0.19259592  0.06854411    -0.23400
C740        C  0.11153817  0.21854224  0.07546684     0.18800
C741        C  0.11054755  0.24751787  0.06721997     0.16000
C742        C  0.09267010  0.25018683  0.05241161    -0.18400
C743        C  0.12659084  0.27356103  0.07424438    -0.20200
C744        C  0.14284834  0.27115588  0.08952508    -0.12800
C745        C  0.14367792  0.24262134  0.09797442     0.03900
C746        C  0.12831961  0.21623046  0.09072452    -0.24900
H747        H  0.06314071  0.17564195  0.04916669     0.08900
H748        H  0.09548187  0.17020750  0.07466720     0.12600
H749        H  0.09113317  0.27250217  0.04630594     0.12500
H750        H  0.12612431  0.29591287  0.06807715     0.12200
H751        H  0.15473500  0.29173897  0.09477408     0.12800
H752        H  0.12869481  0.19410192  0.09713289     0.14700
C753        C  0.42102728  0.25425126  0.04404738    -0.05300
C754        C  0.40766735  0.28241786  0.04685654    -0.06000
C755        C  0.38916174  0.28616676  0.06114708    -0.23400
C756        C  0.38397187  0.26179159  0.07280308     0.18800
C757        C  0.39699091  0.23321455  0.06975530     0.16000
C758        C  0.41523352  0.22961182  0.05537495    -0.18400
C759        C  0.39204941  0.20881125  0.08129148    -0.20200
C760        C  0.37422182  0.21252102  0.09573095    -0.12800
C761        C  0.36118767  0.24075028  0.09899084     0.03900
C762        C  0.36622750  0.26544418  0.08748956    -0.24900
H763        H  0.41234416  0.30169511  0.03826713     0.08900
H764        H  0.37939902  0.30823184  0.06324451     0.12600
H765        H  0.42587732  0.20798091  0.05322780     0.12500
H766        H  0.40199095  0.18683925  0.07915482     0.12200
H767        H  0.37074012  0.19322127  0.10442929     0.12800
H768        H  0.35614553  0.28726592  0.08983812     0.14700
C769        C  0.14394978  0.22704239  0.90659021    -0.05300
C770        C  0.14749050  0.25422333  0.91626683    -0.05200
C771        C  0.13252696  0.25640285  0.93177978    -0.23400
C772        C  0.11324661  0.23162241  0.93772341     0.18800
C773        C  0.11022994  0.20376270  0.92834235     0.16000
C774        C  0.12608944  0.20146009  0.91292214    -0.18400
C775        C  0.09014297  0.17933785  0.93412422    -0.20200
C776        C  0.07203107  0.18310995  0.94852207    -0.12800
C777        C  0.07429906  0.21105924  0.95748461     0.03900
C778        C  0.09560729  0.23488635  0.95238377    -0.24900
H779        H  0.16148297  0.27410913  0.91168245     0.08900
H780        H  0.13515989  0.27785258  0.93881792     0.12600
H781        H  0.12318004  0.18050772  0.90545857     0.12500
H782        H  0.08745543  0.15787099  0.92711433     0.12200
H783        H  0.05533606  0.16473125  0.95230884     0.12800
H784        H  0.09690976  0.25660751  0.95922062     0.14700
C785        C  0.41962008  0.24577557  0.95531441    -0.05300
C786        C  0.40748690  0.27475346  0.95295603    -0.05200
C787        C  0.38810902  0.28005936  0.93909067    -0.23400
C788        C  0.38060852  0.25640784  0.92737576     0.18800
C789        C  0.39213769  0.22689857  0.92999210     0.16000
C790        C  0.41144513  0.22174439  0.94396303    -0.18400
C791        C  0.38465165  0.20316196  0.91842103    -0.20200
C792        C  0.36622481  0.20861143  0.90427394    -0.12800
C793        C  0.35499167  0.23792906  0.90132582     0.03900
C794        C  0.36212417  0.26178619  0.91300948    -0.24900
H795        H  0.41374798  0.29349450  0.96162215     0.08900
H796        H  0.37944381  0.30277449  0.93737127     0.12600
H797        H  0.42086676  0.19936520  0.94579462     0.12500
H798        H  0.39321323  0.18041654  0.92024239     0.12200
H799        H  0.36096238  0.18976244  0.89552301     0.12800
H800        H  0.35341334  0.28439574  0.91094876     0.14700
C801        C  0.27435637  0.99112773  0.26349810    -0.05300
C802        C  0.27457558  0.46665240  0.27531012    -0.05200
C803        C  0.29964113  0.46478370  0.28665742    -0.23400
C804        C  0.32476112  0.48699205  0.28623064     0.18800
C805        C  0.32547020  0.01171015  0.27373448     0.16000
C806        C  0.30079123  0.01215717  0.26216707    -0.18400
C807        C  0.34971078  0.03479024  0.27316125    -0.20200
C808        C  0.37372910  0.03508224  0.28508820    -0.12800
C809        C  0.37443989  0.01183604  0.29748605     0.03900
C810        C  0.34947087  0.48652791  0.29803611    -0.24900
H811        H  0.25530732  0.44951986  0.27617919     0.08900
H812        H  0.29907871  0.44629934  0.29596708     0.12600
H813        H  0.30263456  0.02937222  0.25220929     0.12500
H814        H  0.34978934  0.05298406  0.26368111     0.12200
H815        H  0.39195938  0.05337723  0.28451708     0.12800
H816        H  0.34944009  0.46859905  0.30766739     0.14700
C817        C  0.21431964  0.99605784  0.26103941    -0.05300
C818        C  0.18735047  0.49913409  0.24981549    -0.05200
C819        C  0.15827969  0.50253973  0.25671391    -0.23400
C820        C  0.15469584  0.50334205  0.27427584     0.18800
C821        C  0.18157270  0.99912151  0.28615797     0.16000
C822        C  0.21098222  0.99672583  0.27887292    -0.18400
C823        C  0.17770616  0.99766679  0.30383628    -0.20200
C824        C  0.14818310  0.99911122  0.31085311    -0.12800
C825        C  0.12235142  0.00263261  0.30030953     0.03900
C826        C  0.12518224  0.50548051  0.28125886    -0.24900
H827        H  0.18920279  0.49821302  0.23611523     0.08900
H828        H  0.13852515  0.50414233  0.24827981     0.12600
H829        H  0.23078228  0.99549242  0.28720863     0.12500
H830        H  0.19736054  0.99488117  0.31218768     0.12200
H831        H  0.14542461  0.99741474  0.32449687     0.12800
H832        H  0.10501866  0.50660138  0.27305541     0.14700
C833        C  0.24831886  0.02397520  0.24143551    -0.05300
C834        C  0.24888536  0.05173214  0.25095505    -0.05200
C835        C  0.24917210  0.08048902  0.24317852    -0.23400
C836        C  0.24845290  0.08270366  0.22554683     0.18800
C837        C  0.24745529  0.05552894  0.21557800     0.16000
C838        C  0.24730974  0.02628769  0.22354357    -0.18400
C839        C  0.24634679  0.05823741  0.19780725    -0.20200
C840        C  0.24644310  0.08745286  0.19012372    -0.12800
C841        C  0.24757067  0.11425294  0.20010001     0.03900
C842        C  0.24855769  0.11180654  0.21776128    -0.24900
H843        H  0.24902665  0.05096134  0.26471170     0.08900
H844        H  0.24971550  0.10102476  0.25101067     0.12600
H845        H  0.24551673  0.00574451  0.21578174     0.12500
H846        H  0.24552310  0.03783856  0.18987434     0.12200
H847        H  0.24585182  0.08920554  0.17640036     0.12800
H848        H  0.24949564  0.13260482  0.22541681     0.14700
C849        C  0.24327541  0.46311612  0.24030776    -0.05300
C850        C  0.21987265  0.43931616  0.24351784    -0.05200
C851        C  0.21795049  0.41181505  0.23442237    -0.23400
C852        C  0.23993477  0.40622264  0.22214996     0.18800
C853        C  0.26478840  0.42838236  0.21931331     0.16000
C854        C  0.26654148  0.45646079  0.22852263    -0.18400
C855        C  0.28744632  0.42182329  0.20736986    -0.20200
C856        C  0.28526899  0.39383580  0.19837029    -0.12800
C857        C  0.26015268  0.37206883  0.20092577     0.03900
C858        C  0.23759234  0.37849701  0.21288734    -0.24900
H859        H  0.20291439  0.44115954  0.25341542     0.08900
H860        H  0.19932778  0.39464525  0.23719839     0.12600
H861        H  0.28588389  0.47318525  0.22650366     0.12500
H862        H  0.30681841  0.43831748  0.20497110     0.12200
H863        H  0.30297604  0.38944230  0.18917937     0.12800
H864        H  0.21836915  0.36171252  0.21514209     0.14700
C865        C  0.24551655  0.99316860  0.25161991    -0.02500
N866        N  0.45172308  0.74231102  0.99988361    -0.36700
N867        N  0.99857820  0.73409956  0.02638033    -0.57200
N868        N  0.04308493  0.71944410  0.00091450    -0.36700
N869        N  0.99535371  0.72415850  0.97446349    -0.57200
C870        C  0.43376183  0.74235310  0.01387860     0.26900
C871        C  0.43252592  0.73854837  0.98630269     0.26900
C872        C  0.05980857  0.71352707  0.01504433     0.26900
C873        C  0.05827894  0.70868468  0.98743158     0.26900
C874        C  0.47570353  0.74471292  0.03595829     0.35500
C875        C  0.02388946  0.73356461  0.03656047     0.35500
C876        C  0.47222551  0.73233899  0.96400975     0.35500
C877        C  0.02026490  0.72070304  0.96450482     0.35500
C878        C  0.40277889  0.73894875  0.00911873    -0.21900
C879        C  0.40200444  0.73667416  0.99169027    -0.21900
C880        C  0.08619390  0.69905951  0.01039542    -0.21900
C881        C  0.08520807  0.69600257  0.99299377    -0.21900
C882        C  0.48642867  0.75065384  0.05232069    -0.23000
C883        C  0.01672472  0.74332861  0.05275771    -0.23000
C884        C  0.48225984  0.73328678  0.94733281    -0.23000
C885        C  0.01257448  0.72582939  0.94762675    -0.23000
C886        C  0.44448808  0.74650820  0.03076344    -0.18300
C887        C  0.44178781  0.73794313  0.96914056    -0.18300
C888        C  0.04973435  0.71217484  0.97018079    -0.18300
C889        C  0.05286421  0.72268267  0.03181528    -0.18300
H890        H  0.38277703  0.73828319  0.01734173     0.14600
H891        H  0.38133235  0.73381275  0.98387664     0.14600
H892        H  0.10463817  0.69192780  0.01858119     0.14600
H893        H  0.10263957  0.68602964  0.98529522     0.14600
H894        H  0.47357616  0.75873620  0.06300110     0.12800
H895        H  0.03137431  0.74452137  0.06394556     0.12800
H896        H  0.46914954  0.73876118  0.93608112     0.12800
H897        H  0.02723264  0.72437351  0.93660507     0.12800
H898        H  0.47538909  0.74785766  0.99948804     0.26100
H899        H  0.02454363  0.73334360  0.00020149     0.26100
C900        C  0.25343047  0.49092675  0.75161504    -0.02500
C901        C  0.99208542  0.75765126  0.74988585    -0.02500
N902        N  0.25020928  0.54148343  0.00071184    -0.36700
N903        N  0.24386375  0.99348226  0.97428813    -0.57200
N904        N  0.23193273  0.94539811  0.00000593    -0.36700
N905        N  0.24277623  0.99193207  0.02632968    -0.57200
C906        C  0.25905081  0.55822882  0.98685253     0.26900
C907        C  0.25935494  0.55810566  0.01456835     0.26900
C908        C  0.23414720  0.92781424  0.98597893     0.26900
C909        C  0.23577346  0.92685473  0.01363843     0.26900
C910        C  0.24256347  0.51940697  0.96462805     0.35500
C911        C  0.23548984  0.96949919  0.96394715     0.35500
C912        C  0.24263231  0.51926908  0.03657611     0.35500
C913        C  0.23477263  0.96706443  0.03613032     0.35500
C914        C  0.27355012  0.58615812  0.99197224    -0.21900
C915        C  0.27378382  0.58605149  0.00947625    -0.21900
C916        C  0.23846990  0.89755216  0.99073292    -0.21900
C917        C  0.23976648  0.89699735  0.00817585    -0.21900
C918        C  0.23505899  0.51095944  0.94804266    -0.23000
C919        C  0.23344382  0.97969106  0.94729773    -0.23000
C920        C  0.23313036  0.51088402  0.05283616    -0.23000
C921        C  0.22905867  0.97628511  0.05258231    -0.23000
C922        C  0.25272956  0.54968904  0.96977992    -0.18300
C923        C  0.25310496  0.54947166  0.03160235    -0.18300
C924        C  0.23498991  0.93593693  0.03087321    -0.18300
C925        C  0.23207301  0.93812640  0.96898600    -0.18300
H926        H  0.28271779  0.60485058  0.98395698     0.14600
H927        H  0.28311905  0.60462105  0.01751805     0.14600
H928        H  0.24097573  0.87796218  0.98248580     0.14600
H929        H  0.24336762  0.87685286  0.01591917     0.14600
H930        H  0.23487183  0.52564941  0.93690960     0.12800
H931        H  0.22792678  0.96597861  0.93609547     0.12800
H932        H  0.23077338  0.52576130  0.06369144     0.12800
H933        H  0.22255252  0.96179406  0.06336668     0.12800
H934        H  0.23565888  0.52150242  0.00072544     0.26100
H935        H  0.22546209  0.96804696  0.00021678     0.26100
C936        C  0.33236639  0.74102089  0.88708322     0.42400
N937        N  0.30674364  0.73005895  0.86421707     0.01300
C938        C  0.20935414  0.82310635  0.81943227    -0.06600
H939        H  0.18959050  0.81327976  0.88506376     0.06800
C940        C  0.16494345  0.70197302  0.87846285    -0.06900
Co941      Co  0.27975963  0.78465302  0.84766357     0.74200
N942        N  0.22373795  0.79878537  0.86735227    -0.26100
Co943      Co  0.19946231  0.77443298  0.84799693     0.74100
C944        C  0.15464550  0.72825650  0.88810226     0.42500
N945        N  0.23074968  0.67282138  0.86276310     0.00900
N946        N  0.17839197  0.74498363  0.86578570     0.01000
N947        N  0.26164306  0.83023329  0.81903255    -0.47000
H948        H  0.32369600  0.79288149  0.88444877     0.06800
N949        N  0.25423940  0.80251848  0.86709379     0.01300
N950        N  0.17558955  0.74884353  0.82882878     0.01000
C951        C  0.14104192  0.73370841  0.81035514     0.42600
N952        N  0.26125218  0.67639576  0.86274021    -0.25600
C953        C  0.32554818  0.77903441  0.81760147    -0.06500
N954        N  0.32264961  0.71785968  0.87663779    -0.46700
N955        N  0.15389633  0.75881074  0.81854222    -0.46900
C956        C  0.34059969  0.75375794  0.80949246     0.42400
N957        N  0.25241148  0.80806354  0.82994636     0.01300
N958        N  0.26055064  0.68093577  0.82543772    -0.25600
N959        N  0.30534503  0.76025958  0.86558537    -0.26100
N960        N  0.23005379  0.67624310  0.82554293     0.00900
H961        H  0.29615162  0.66343773  0.80972624     0.06800
H962        H  0.15127156  0.68273600  0.81424455     0.06900
N963        N  0.22188530  0.80361715  0.83034065    -0.26100
N964        N  0.17969068  0.71472097  0.86488646    -0.25700
N965        N  0.30708535  0.73503696  0.82741664     0.01300
C966        C  0.24171350  0.82471734  0.89011812     0.42700
C967        C  0.27211602  0.66144650  0.87632194    -0.07000
N968        N  0.17759011  0.71860941  0.82790473    -0.25700
H969        H  0.16262860  0.67758932  0.88146001     0.06800
N970        N  0.26586109  0.81790360  0.88038056    -0.47000
H971        H  0.29617697  0.66114120  0.88009080     0.06800
C972        C  0.24478403  0.65058144  0.80396999     0.42500
C973        C  0.32105376  0.76946101  0.87974629    -0.06500
Co974      Co  0.28432923  0.70520476  0.84483966     0.73800
N975        N  0.21982713  0.65639918  0.87582778    -0.46700
C976        C  0.23562804  0.84069522  0.81183991     0.42800
N977        N  0.32840805  0.72729085  0.81649720    -0.46700
Co978      Co  0.20409551  0.69498628  0.84515787     0.73900
C979        C  0.15667335  0.70704083  0.81661080    -0.07000
C980        C  0.21358422  0.81224757  0.88144784    -0.06600
N981        N  0.30511500  0.76525338  0.82841265    -0.26100
N982        N  0.16369632  0.75394812  0.87936784    -0.46900
H983        H  0.18480768  0.82581520  0.81781502     0.06800
C984        C  0.27185165  0.66562833  0.81232608    -0.07000
Cl985      Cl  0.24191421  0.73986963  0.84624622    -0.50000
C986        C  0.24444493  0.64848441  0.88506529     0.42600
H987        H  0.33167344  0.80358904  0.81699007     0.06800
N988        N  0.21972427  0.65757239  0.81311710    -0.46700
C989        C  0.25825482  0.84286364  0.19149211     0.42400
N990        N  0.26915388  0.80936849  0.17271454     0.01300
C991        C  0.17024404  0.71431246  0.12316315    -0.06600
H992        H  0.15837028  0.69013656  0.18615466     0.06800
C993        C  0.27647275  0.66117479  0.18502535    -0.06900
Co994      Co  0.21234079  0.78177375  0.15479634     0.74200
N995        N  0.18713785  0.72526707  0.17331857    -0.26100
Co996      Co  0.21091258  0.70168357  0.15485758     0.74100
C997        C  0.24859484  0.64612696  0.19236627     0.42500
N998        N  0.31596242  0.73161787  0.17345569     0.00900
N999        N  0.23566354  0.67850376  0.17328218     0.01000
N1000       N  0.17154424  0.76653189  0.12332705    -0.47000
H1001       H  0.20579501  0.83321392  0.18693849     0.06800
N1002       N  0.18759802  0.75577293  0.17339079     0.01300
N1003       N  0.23531155  0.67951256  0.13620221     0.01000
C1004       C  0.24724328  0.65414489  0.11407704     0.42600
N1005       N  0.31689355  0.76212023  0.17305135    -0.25600
C1006       C  0.22715868  0.82197942  0.12262240    -0.06500
N1007       N  0.28175768  0.83046600  0.18325039    -0.46700
N1008       N  0.22323720  0.66383453  0.12308796    -0.46900
C1009       C  0.25517725  0.83416020  0.11407543     0.42400
N1010       N  0.18764054  0.75577998  0.13620907     0.01300
N1011       N  0.31591891  0.76150568  0.13593224    -0.25600
N1012       N  0.23851787  0.80741148  0.17318406    -0.26100
N1013       N  0.31546215  0.73108206  0.13644351     0.00900
H1014       H  0.33829824  0.79548678  0.11915038     0.06800
H1015       H  0.29953763  0.66279429  0.11953920     0.06900
N1016       N  0.18728573  0.72534255  0.13633942    -0.26100
N1017       N  0.26624345  0.68071069  0.17338855    -0.25700
N1018       N  0.26802245  0.80795679  0.13581263     0.01300
C1019       C  0.15352328  0.74144714  0.19218505     0.42700
C1020       C  0.33660993  0.77310467  0.18513038    -0.07000
N1021       N  0.26588685  0.68083087  0.13635385    -0.25700
H1022       H  0.30033259  0.65556717  0.18669784     0.06800
N1023       N  0.16744760  0.76628115  0.18424435    -0.47000
H1024       H  0.34317509  0.79724251  0.18734489     0.06800
C1025       C  0.34377077  0.74344368  0.11494366     0.42500
C1026       C  0.22946709  0.82753624  0.18482764    -0.06500
Co1027     Co  0.29296148  0.78570887  0.15439081     0.73800
N1028       N  0.33422583  0.72083165  0.18538208    -0.46700
C1029       C  0.15992899  0.74168453  0.11448035     0.42800
N1030       N  0.27964792  0.82475383  0.12299843    -0.46700
Co1031     Co  0.29129085  0.70566577  0.15498567     0.73900
C1032       C  0.27561701  0.66523100  0.12291201    -0.07000
C1033       C  0.16613499  0.71419396  0.18465217    -0.06600
N1034       N  0.23741781  0.80619362  0.13596570    -0.26100
N1035       N  0.22416861  0.65752692  0.18420083    -0.46900
H1036       H  0.16590013  0.69014900  0.12007881     0.06800
C1037       C  0.33327863  0.77157468  0.12267647    -0.07000
Cl1038     Cl  0.25183865  0.74373993  0.15486918    -0.50000
C1039       C  0.34793974  0.74566966  0.19336510     0.42600
H1040       H  0.20313621  0.82503631  0.11952310     0.06800
N1041       N  0.33185219  0.71941709  0.12420647    -0.46700
C1042       C  0.50219107  0.91133672  0.69132633     0.42400
N1043       N  0.48965178  0.94536346  0.67303031     0.01300
C1044       C  0.08002510  0.53588671  0.61909041    -0.06600
H1045       H  0.09631382  0.56157851  0.68529127     0.06800
C1046       C  0.48213956  0.59072279  0.68456420    -0.06900
Co1047     Co  0.04481590  0.97246559  0.65424490     0.74200
N1048       N  0.07017144  0.52646839  0.67084608    -0.26100
Co1049     Co  0.04428976  0.54994094  0.65260347     0.74100
C1050       C  0.51085036  0.60723800  0.69037736     0.42500
N1051       N  0.44070849  0.51871837  0.67406475     0.00900
N1052       N  0.02150508  0.57359395  0.67157204     0.01000
N1053       N  0.08003634  0.98538570  0.62171336    -0.47000
H1054       H  0.05397305  0.92003055  0.68533737     0.06800
N1055       N  0.07138006  0.99872882  0.67198711     0.01300
N1056       N  0.01715242  0.57147057  0.63443595     0.01000
C1057       C  0.50075053  0.59526648  0.61247380     0.42600
N1058       N  0.44153648  0.99230147  0.67392127    -0.25600
C1059       C  0.02864866  0.93147651  0.62297196    -0.06500
N1060       N  0.47799401  0.92390647  0.68361480    -0.46700
N1061       N  0.02661217  0.58664094  0.62053507    -0.46900
C1062       C  0.50059789  0.92028618  0.61401787     0.42400
N1063       N  0.06721891  0.99763061  0.63505720     0.01300
N1064       N  0.44008119  0.99303184  0.63659034    -0.25600
N1065       N  0.02028749  0.94727496  0.67301687    -0.26100
N1066       N  0.43816895  0.51912500  0.63697079     0.00900
H1067       H  0.41875667  0.95938862  0.61920986     0.06800
H1068       H  0.44992250  0.58671313  0.62069193     0.06900
N1069       N  0.06589992  0.52589758  0.63345526    -0.26100
N1070       N  0.49096894  0.57067734  0.67287007    -0.25700
N1071       N  0.48815099  0.94635293  0.63586523     0.01300
C1072       C  0.10358295  0.51001370  0.69016316     0.42700
C1073       C  0.42142379  0.98140257  0.68576204    -0.07000
N1074       N  0.48671499  0.56976147  0.63589552    -0.25700
H1075       H  0.45842257  0.59579078  0.68707319     0.06800
N1076       N  0.09181195  0.98824132  0.68292076    -0.47000
H1077       H  0.41353669  0.95740512  0.68737657     0.06800
C1078       C  0.41122903  0.50658514  0.61471848     0.42500
C1079       C  0.03028610  0.92644097  0.68408347    -0.06500
Co1080     Co  0.46432480  0.96875624  0.65486459     0.73800
N1081       N  0.42114079  0.52903714  0.68531160    -0.46700
C1082       C  0.08804140  0.50768531  0.61040385     0.42800
N1083       N  0.47627905  0.93015903  0.62281871    -0.46700
Co1084     Co  0.46379978  0.54493976  0.65513961     0.73900
C1085       C  0.47439748  0.58442318  0.62277436    -0.07000
C1086       C  0.09031469  0.53741869  0.68279552    -0.06600
N1087       N  0.01869918  0.94749240  0.63613223    -0.26100
N1088       N  0.03421316  0.59550223  0.68162429    -0.46900
H1089       H  0.08307624  0.55968514  0.61495449     0.06800
C1090       C  0.42306132  0.98320293  0.62304224    -0.07000
Cl1091     Cl  0.50374538  0.50746566  0.65401538    -0.50000
C1092       C  0.40774834  0.50415125  0.69343827     0.42600
H1093       H  0.05263617  0.92821738  0.62011526     0.06800
N1094       N  0.42240784  0.53062118  0.62423340    -0.46700
C1095       C  0.09048314  0.50606632  0.30608466     0.42400
N1096       N  0.06106174  0.52153805  0.32577381     0.01300
C1097       C  0.46398730  0.93575937  0.38124405    -0.06600
H1098       H  0.43397748  0.92238901  0.31667619     0.06800
C1099       C  0.41547979  0.53910132  0.31742082    -0.06900
Co1100     Co  0.03163508  0.96765138  0.34695313     0.74200
N1101       N  0.47211939  0.94626755  0.32995690    -0.26100
Co1102     Co  0.45231143  0.97338717  0.34839689     0.74100
C1103       C  0.39873804  0.51138329  0.31067549     0.42500
N1104       N  0.48804856  0.57546117  0.32715547     0.00900
N1105       N  0.43011538  0.99906604  0.33006257     0.01000
N1106       N  0.01602925  0.93302464  0.38043712    -0.47000
H1107       H  0.07975409  0.95293152  0.31514698     0.06800
N1108       N  0.00240941  0.94394707  0.32944440     0.01300
N1109       N  0.43412452  0.00064177  0.36694463     0.01000
C1110       C  0.41698033  0.51419895  0.39049343     0.42600
N1111       N  0.01826854  0.57315700  0.32594245    -0.25600
C1112       C  0.07694284  0.98204387  0.37722690    -0.06500
N1113       N  0.08101169  0.53134316  0.31397152    -0.46700
N1114       N  0.41922639  0.99002284  0.38054533    -0.46900
C1115       C  0.09118930  0.51144039  0.38458931     0.42400
N1116       N  0.00555245  0.94730613  0.36681724     0.01300
N1117       N  0.02315209  0.57525011  0.36291605    -0.25600
N1118       N  0.05690305  0.98943835  0.32738406    -0.26100
N1119       N  0.49293955  0.57685722  0.36436517     0.00900
H1120       H  0.06213994  0.59459906  0.37735848     0.06800
H1121       H  0.42783566  0.56579209  0.38443508     0.06900
N1122       N  0.47523695  0.94928652  0.36705813    -0.26100
N1123       N  0.43418322  0.52872906  0.32953270    -0.25700
N1124       N  0.06491660  0.52385244  0.36270292     0.01300
C1125       C  0.48434460  0.91195101  0.31046021     0.42700
C1126       C  0.02877977  0.59051347  0.31278679    -0.07000
N1127       N  0.43944769  0.53061062  0.36662919    -0.25700
H1128       H  0.41258812  0.56313076  0.31446397     0.06800
N1129       N  0.01069578  0.92372392  0.31799107    -0.47000
H1130       H  0.05283806  0.59482942  0.30931865     0.06800
C1131       C  0.51236053  0.60419483  0.38498915     0.42500
C1132       C  0.07527672  0.97714370  0.31595833    -0.06500
Co1133     Co  0.04237446  0.54886898  0.34421466     0.73800
N1134       N  0.47705600  0.59408023  0.31549690    -0.46700
C1135       C  0.49105796  0.92529480  0.39021241     0.42800
N1136       N  0.08282454  0.53554497  0.37508735    -0.46700
Co1137     Co  0.46308385  0.55350157  0.34691224     0.73900
C1138       C  0.42765624  0.54170052  0.38092560    -0.07000
C1139       C  0.45867976  0.92677894  0.31849593    -0.06600
N1140       N  0.06010748  0.99216824  0.36422511    -0.26100
N1141       N  0.40935610  0.98816110  0.31878262    -0.46900
H1142       H  0.43987216  0.93390052  0.38486212     0.06800
C1143       C  0.03737329  0.59203091  0.37524515    -0.07000
Cl1144     Cl  0.49799072  0.51104504  0.34623560    -0.50000
C1145       C  0.50129956  0.60386433  0.30572288     0.42600
H1146       H  0.07835089  0.95816487  0.38099548     0.06800
N1147       N  0.48538172  0.59390902  0.37750985    -0.46700
N1148       N  0.01089960  0.71184329  0.50042079    -0.36700
N1149       N  0.01008253  0.76027773  0.47479490    -0.57200
N1150       N  0.01498127  0.80754815  0.50127821    -0.36700
N1151       N  0.01961197  0.75927106  0.52678256    -0.57200
C1152       C  0.01169045  0.69445298  0.48621799     0.26900
C1153       C  0.01884532  0.69401600  0.51368275     0.26900
C1154       C  0.01955306  0.82569133  0.48738389     0.26900
C1155       C  0.02182350  0.82517474  0.51510741     0.26900
C1156       C  0.00270131  0.73561705  0.46475337     0.35500
C1157       C  0.00727443  0.78570113  0.46504092     0.35500
C1158       C  0.01799160  0.73370365  0.53671949     0.35500
C1159       C  0.01756555  0.78370474  0.53728319     0.35500
C1160       C  0.01960344  0.66492095  0.49054832    -0.21900
C1161       C  0.02415723  0.66465295  0.50787521    -0.21900
C1162       C  0.02884121  0.85546218  0.49247491    -0.21900
C1163       C  0.03008230  0.85518324  0.50995779    -0.21900
C1164       C  0.99528103  0.74547040  0.44853789    -0.23000
C1165       C  0.99836501  0.77710936  0.44869160    -0.23000
C1166       C  0.01558421  0.74202149  0.55363110    -0.23000
C1167       C  0.01523764  0.77358913  0.55398279    -0.23000
C1168       C  0.00487195  0.70428391  0.46950975    -0.18300
C1169       C  0.01980627  0.70293477  0.53096976    -0.18300
C1170       C  0.01974172  0.81518608  0.53224453    -0.18300
C1171       C  0.01420899  0.81658840  0.47028951    -0.18300
H1172       H  0.02192231  0.64557377  0.48210465     0.14600
H1173       H  0.03048994  0.64499677  0.51535186     0.14600
H1174       H  0.03389266  0.87543244  0.48444042     0.14600
H1175       H  0.03641022  0.87487321  0.51793854     0.14600
H1176       H  0.98885162  0.73134242  0.43761384     0.12800
H1177       H  0.99463659  0.79205849  0.43792961     0.12800
H1178       H  0.01429059  0.72694658  0.56462587     0.12800
H1179       H  0.01385074  0.78748232  0.56530953     0.12800
H1180       H  0.00232881  0.73361394  0.50123117     0.26100
H1181       H  0.00473755  0.78524785  0.50142759     0.26100
N1182       N  0.20289337  0.00103597  0.49863751    -0.36700
N1183       N  0.25180797  0.00908280  0.47413627    -0.57200
N1184       N  0.29816519  0.01091073  0.50130516    -0.36700
N1185       N  0.24957395  0.00547424  0.52575444    -0.57200
C1186       C  0.18639669  0.00573296  0.48432899     0.26900
C1187       C  0.18539383  0.00906261  0.51187453     0.26900
C1188       C  0.31574412  0.02210764  0.48829412     0.26900
C1189       C  0.31489143  0.01560960  0.51573406     0.26900
C1190       C  0.22825707  0.00035963  0.46348551     0.35500
C1191       C  0.27796502  0.00953226  0.46485760     0.35500
C1192       C  0.22351197  0.00006873  0.53490744     0.35500
C1193       C  0.27353912  0.99996960  0.53621373     0.35500
C1194       C  0.15775272  0.01612445  0.48847168    -0.21900
C1195       C  0.15719759  0.01846200  0.50590487    -0.21900
C1196       C  0.34417030  0.03392612  0.49451028    -0.21900
C1197       C  0.34370649  0.02959469  0.51186486    -0.21900
C1198       C  0.23948421  0.99516319  0.44736685    -0.23000
C1199       C  0.27095893  0.00130027  0.44818825    -0.23000
C1200       C  0.23092803  0.99135613  0.55132597    -0.23000
C1201       C  0.26263064  0.99098626  0.55210337    -0.23000
C1202       C  0.19659408  0.00051898  0.46768217    -0.18300
C1203       C  0.19353659  0.00629149  0.52918274    -0.18300
C1204       C  0.30509960  0.00605023  0.53210177    -0.18300
C1205       C  0.30781559  0.01927735  0.47092144    -0.18300
H1206       H  0.13939446  0.02186275  0.47982522     0.14600
H1207       H  0.13808846  0.02593950  0.51333550     0.14600
H1208       H  0.36351258  0.04392576  0.48725699     0.14600
H1209       H  0.36245045  0.03590608  0.52060563     0.14600
H1210       H  0.22630656  0.98858737  0.43606987     0.12800
H1211       H  0.28679333  0.00013150  0.43765295     0.12800
H1212       H  0.21521140  0.98630677  0.56175300     0.12800
H1213       H  0.27611837  0.98582679  0.56326947     0.12800
H1214       H  0.22362453  0.99015046  0.49934209     0.26100
H1215       H  0.27759630  0.99732170  0.50020650     0.26100
C1216       C  0.00374454  0.76225978  0.25131865    -0.02500
C1217       C  0.00467368  0.79443560  0.26031868    -0.05300
C1218       C  0.03003200  0.81667783  0.25908971    -0.05200
C1219       C  0.03096458  0.84407279  0.26847010    -0.23400
C1220       C  0.00621794  0.85071810  0.27894030     0.18800
C1221       C  0.47951821  0.83022823  0.27924356     0.16000
C1222       C  0.47865602  0.80278294  0.26971610    -0.18400
C1223       C  0.45434421  0.83721759  0.28937822    -0.20200
C1224       C  0.45576351  0.86403327  0.29926890    -0.12800
C1225       C  0.48248759  0.88425616  0.29937624     0.03900
C1226       C  0.00767678  0.87747744  0.28909378    -0.24900
H1227       H  0.04949179  0.81338466  0.25093159     0.08900
H1228       H  0.05122340  0.86003500  0.26758374     0.12600
H1229       H  0.45823528  0.78695522  0.27026320     0.12500
H1230       H  0.43365531  0.82176847  0.28980244     0.12200
H1231       H  0.43613836  0.86854140  0.30714649     0.12800
H1232       H  0.02832917  0.89303290  0.28897907     0.14700
C1233       C  0.00078259  0.73521765  0.26450964    -0.05300
C1234       C  0.50053290  0.74003207  0.28230709    -0.05200
C1235       C  0.49904744  0.71531823  0.29374799    -0.23400
C1236       C  0.49931417  0.68493950  0.28794129     0.18800
C1237       C  0.00101400  0.67935634  0.27033299     0.16000
C1238       C  0.00158174  0.70429004  0.25882853    -0.18400
C1239       C  0.00271251  0.64891407  0.26455632    -0.20200
C1240       C  0.00296501  0.62436413  0.27615297    -0.12800
C1241       C  0.50088724  0.62980211  0.29362892     0.03900
C1242       C  0.49883243  0.66009907  0.29949131    -0.24900
H1243       H  0.50239275  0.76276362  0.28783130     0.08900
H1244       H  0.49858233  0.72008884  0.30724324     0.12600
H1245       H  0.00299356  0.69975447  0.24533272     0.12500
H1246       H  0.00420147  0.64413293  0.25110061     0.12200
H1247       H  0.00462177  0.60105982  0.27148939     0.12800
H1248       H  0.49752270  0.66432006  0.31302776     0.14700
C1249       C  0.51562318  0.62326323  0.40053824    -0.05300
C1250       C  0.04388765  0.63993423  0.40397395    -0.05200
C1251       C  0.04768248  0.65802183  0.41854040    -0.23400
C1252       C  0.02333118  0.65963459  0.43006150     0.18800
C1253       C  0.49485331  0.64262169  0.42695465     0.16000
C1254       C  0.49108303  0.62467696  0.41211384    -0.18400
C1255       C  0.47060518  0.64425289  0.43865291    -0.20200
C1256       C  0.47426575  0.66331895  0.45295105    -0.12800
C1257       C  0.00219965  0.68088774  0.45575392     0.03900
C1258       C  0.02682762  0.67854957  0.44443861    -0.24900
H1259       H  0.06309069  0.63939680  0.39525161     0.08900
H1260       H  0.06963363  0.67092469  0.42073443     0.12600
H1261       H  0.46925837  0.61170881  0.40963901     0.12500
H1262       H  0.44865345  0.63130015  0.43656510     0.12200
H1263       H  0.45503316  0.66511448  0.46156376     0.12800
H1264       H  0.04833177  0.69228778  0.44659447     0.14700
C1265       C  0.01651063  0.84063976  0.45680251    -0.05300
C1266       C  0.04418028  0.84583915  0.44772530    -0.05200
C1267       C  0.04538666  0.86528891  0.43350063    -0.23400
C1268       C  0.01874495  0.87940688  0.42799702     0.18800
C1269       C  0.49100063  0.87493103  0.43741222     0.16000
C1270       C  0.49013303  0.85578392  0.45185527    -0.18400
C1271       C  0.46429566  0.88870482  0.43183509    -0.20200
C1272       C  0.46461949  0.90566540  0.41671360    -0.12800
C1273       C  0.49170220  0.90938472  0.40690642     0.03900
C1274       C  0.01899574  0.89690223  0.41290587    -0.24900
H1275       H  0.06457422  0.83406986  0.45138673     0.08900
H1276       H  0.06684338  0.86846952  0.42648903     0.12600
H1277       H  0.46869930  0.85147674  0.45879556     0.12500
H1278       H  0.44292173  0.88571479  0.43894083     0.12200
H1279       H  0.44340186  0.91545405  0.41262022     0.12800
H1280       H  0.04008481  0.89983424  0.40554007     0.14700
C1281       C  0.10990224  0.51433515  0.40030020    -0.05300
C1282       C  0.12506972  0.54291770  0.40447462    -0.05200
C1283       C  0.14380810  0.54590603  0.41892733    -0.23400
C1284       C  0.14759188  0.52036929  0.42949596     0.18800
C1285       C  0.13173647  0.49164312  0.42572323     0.16000
C1286       C  0.11410769  0.98865930  0.41117642    -0.18400
C1287       C  0.13433355  0.96797941  0.43758854    -0.20200
C1288       C  0.15426969  0.97116113  0.45161567    -0.12800
C1289       C  0.17346969  0.99818874  0.45372819     0.03900
C1290       C  0.16755221  0.52294397  0.44355307    -0.24900
H1291       H  0.12285775  0.56293113  0.39638899     0.08900
H1292       H  0.15568102  0.56809092  0.42170971     0.12600
H1293       H  0.09969436  0.96754379  0.40937081     0.12500
H1294       H  0.11999059  0.94674699  0.43603791     0.12200
H1295       H  0.15528333  0.95230551  0.46062437     0.12800
H1296       H  0.18029842  0.54472858  0.44628723     0.14700
C1297       C  0.40222644  0.51194950  0.40720495    -0.05300
C1298       C  0.39665905  0.98375394  0.41519163    -0.05200
C1299       C  0.38104030  0.98029541  0.43055169    -0.23400
C1300       C  0.36702331  0.00540497  0.43763028     0.18800
C1301       C  0.37211094  0.53421607  0.42942361     0.16000
C1302       C  0.38993612  0.53778751  0.41466820    -0.18400
C1303       C  0.35755215  0.55933062  0.43627094    -0.20200
C1304       C  0.33720531  0.55473252  0.44988454    -0.12800
C1305       C  0.33222255  0.02568128  0.45817690     0.03900
C1306       C  0.34851163  0.00123733  0.45204822    -0.24900
H1307       H  0.40647694  0.96373018  0.40969340     0.08900
H1308       H  0.37898487  0.95774232  0.43656884     0.12600
H1309       H  0.39275356  0.56021120  0.40855418     0.12500
H1310       H  0.36098242  0.58218038  0.43071076     0.12200
H1311       H  0.32502489  0.57396061  0.45464063     0.12800
H1312       H  0.34506616  0.97856266  0.45785426     0.14700
C1313       C  0.17035802  0.01247901  0.54222160    -0.05300
C1314       C  0.17186597  0.54318654  0.54925778    -0.05200
C1315       C  0.15338665  0.54867178  0.56326230    -0.23400
C1316       C  0.13526087  0.52432003  0.57066838     0.18800
C1317       C  0.13526586  0.99354144  0.56437581     0.16000
C1318       C  0.15315682  0.98800363  0.55004840    -0.18400
C1319       C  0.11967246  0.96897519  0.57297821    -0.20200
C1320       C  0.10419885  0.97433068  0.58806256    -0.12800
C1321       C  0.10257964  0.50401074  0.59368778     0.03900
C1322       C  0.11881552  0.52898338  0.58566652    -0.24900
H1323       H  0.18682698  0.56188613  0.54412401     0.08900
H1324       H  0.15412997  0.57165586  0.56866272     0.12600
H1325       H  0.15508881  0.96461384  0.54552290     0.12500
H1326       H  0.12015946  0.94552730  0.56830936     0.12200
H1327       H  0.09297047  0.95478087  0.59467751     0.12800
H1328       H  0.11985157  0.55165252  0.59146650     0.14700
C1329       C  0.32858471  0.00290579  0.54573268    -0.05300
C1330       C  0.33943464  0.97376702  0.54933223    -0.05200
C1331       C  0.35868659  0.96954792  0.56339356    -0.23400
C1332       C  0.36733672  0.99446669  0.57410511     0.18800
C1333       C  0.36279844  0.51887792  0.56747049     0.16000
C1334       C  0.34482562  0.52325433  0.55283191    -0.18400
C1335       C  0.37610639  0.54430756  0.57637573    -0.20200
C1336       C  0.39209256  0.53998054  0.59156740    -0.12800
C1337       C  0.39527683  0.51015005  0.59816520     0.03900
C1338       C  0.38557357  0.99020768  0.58873073    -0.24900
H1339       H  0.33225507  0.95410124  0.54148234     0.08900
H1340       H  0.36631843  0.94669741  0.56606844     0.12600
H1341       H  0.34087207  0.54641759  0.54843824     0.12500
H1342       H  0.37365747  0.56761157  0.57176475     0.12200
H1343       H  0.40172873  0.56017067  0.59827016     0.12800
H1344       H  0.39312719  0.96745674  0.59173455     0.14700
C1345       C  0.02206499  0.67855927  0.54409520    -0.05300
C1346       C  0.05099634  0.67183243  0.55084097    -0.05200
C1347       C  0.05279350  0.65233671  0.56496865    -0.23400
C1348       C  0.02562190  0.63978228  0.57268131     0.18800
C1349       C  0.49647423  0.64570219  0.56551484     0.16000
C1350       C  0.49491042  0.66477901  0.55116029    -0.18400
C1351       C  0.46930252  0.63350500  0.57323248    -0.20200
C1352       C  0.47086205  0.61661398  0.58828618    -0.12800
C1353       C  0.49963521  0.61142302  0.59589757     0.03900
C1354       C  0.02701666  0.62243338  0.58776673    -0.24900
H1355       H  0.07208950  0.68250577  0.54549364     0.08900
H1356       H  0.07534148  0.64797386  0.57021497     0.12600
H1357       H  0.47259294  0.67024590  0.54597975     0.12500
H1358       H  0.44679226  0.63765479  0.56785300     0.12200
H1359       H  0.44933939  0.60804060  0.59403273     0.12800
H1360       H  0.04931839  0.61836027  0.59343517     0.14700
C1361       C  0.02110604  0.83887772  0.54588311    -0.05300
C1362       C  0.04983399  0.85157049  0.55176251    -0.05200
C1363       C  0.05141582  0.87129053  0.56579939    -0.23400
C1364       C  0.02426920  0.87823729  0.57430337     0.18800
C1365       C  0.49516704  0.86608671  0.56822841     0.16000
C1366       C  0.49375681  0.84661126  0.55397476    -0.18400
C1367       C  0.46809061  0.87297161  0.57679370    -0.20200
C1368       C  0.46983827  0.89100199  0.59152242    -0.12800
C1369       C  0.99866305  0.90250038  0.59793639     0.03900
C1370       C  0.02579566  0.89643571  0.58904025    -0.24900
H1371       H  0.07105249  0.84560737  0.54569134     0.08900
H1372       H  0.07390174  0.88048254  0.57025925     0.12600
H1373       H  0.47159179  0.83658491  0.54949343     0.12500
H1374       H  0.44558812  0.86397899  0.57226472     0.12200
H1375       H  0.44863408  0.89554659  0.59804830     0.12800
H1376       H  0.04822396  0.90540182  0.59365285     0.14700
C1377       C  0.12304371  0.74210040  0.20049984    -0.05300
C1378       C  0.09562465  0.74009862  0.19081151    -0.05200
C1379       C  0.06681628  0.74274509  0.19858390    -0.23400
C1380       C  0.06500677  0.74752931  0.21619297     0.18800
C1381       C  0.09249427  0.74852859  0.22604092     0.16000
C1382       C  0.12132316  0.74583907  0.21814249    -0.18400
C1383       C  0.09076564  0.75251581  0.24361312    -0.20200
C1384       C  0.06232597  0.75654993  0.25132896    -0.12800
C1385       C  0.03458914  0.75744165  0.24175144     0.03900
C1386       C  0.03631589  0.75168682  0.22405470    -0.24900
H1387       H  0.09659854  0.73703745  0.17718100     0.08900
H1388       H  0.04603245  0.74159396  0.19078503     0.12600
H1389       H  0.14247377  0.74714486  0.22565692     0.12500
H1390       H  0.11150968  0.75280224  0.25142441     0.12200
H1391       H  0.06197658  0.75971848  0.26496219     0.12800
H1392       H  0.01564081  0.75023241  0.21623737     0.14700
C1393       C  0.37432518  0.74427451  0.20535172    -0.05300
C1394       C  0.37638183  0.71872860  0.21621621    -0.05200
C1395       C  0.40122532  0.71728677  0.22762999    -0.23400
C1396       C  0.42501167  0.74091560  0.22797817     0.18800
C1397       C  0.42358110  0.76619867  0.21672556     0.16000
C1398       C  0.39796623  0.76807274  0.20574921    -0.18400
C1399       C  0.44792983  0.78904455  0.21651858    -0.20200
C1400       C  0.47358194  0.78678212  0.22723843    -0.12800
C1401       C  0.47543254  0.76210387  0.23893155     0.03900
C1402       C  0.45019819  0.73953411  0.23932625    -0.24900
H1403       H  0.35849476  0.70006349  0.21603954     0.08900
H1404       H  0.40202396  0.69750457  0.23603648     0.12600
H1405       H  0.39688750  0.78763399  0.19720534     0.12500
H1406       H  0.44732082  0.80857111  0.20791964     0.12200
H1407       H  0.49213310  0.80473076  0.22656619     0.12800
H1408       H  0.44950285  0.72080808  0.24839373     0.14700
C1409       C  0.24415807  0.63768312  0.09766404    -0.05300
C1410       C  0.21507814  0.63403146  0.08958640    -0.05200
C1411       C  0.21160151  0.61802027  0.07426592    -0.23400
C1412       C  0.23708884  0.60503832  0.06683368     0.18800
C1413       C  0.26656317  0.60877966  0.07474536     0.16000
C1414       C  0.26995332  0.62529741  0.09003686    -0.18400
C1415       C  0.29191879  0.59515028  0.06747380    -0.20200
C1416       C  0.28782278  0.57701150  0.05288608    -0.12800
C1417       C  0.25849567  0.57274458  0.04521695     0.03900
C1418       C  0.23335148  0.58738727  0.05198125    -0.24900
H1419       H  0.19490578  0.64351832  0.09514963     0.08900
H1420       H  0.18886057  0.61534015  0.06838356     0.12600
H1421       H  0.29248367  0.62781212  0.09615407     0.12500
H1422       H  0.31465756  0.59770486  0.07336387     0.12200
H1423       H  0.30727957  0.56546224  0.04786782     0.12800
H1424       H  0.21062707  0.58363039  0.04615996     0.14700
C1425       C  0.23579663  0.91185482  0.04436352    -0.05300
C1426       C  0.21103279  0.88961786  0.04629678    -0.05200
C1427       C  0.21047747  0.86905120  0.06003024    -0.23400
C1428       C  0.23454705  0.87068225  0.07210835     0.18800
C1429       C  0.26004862  0.89238124  0.06993806     0.16000
C1430       C  0.26061162  0.91262789  0.05600775    -0.18400
C1431       C  0.28419094  0.89394141  0.08195348    -0.20200
C1432       C  0.28286636  0.87448524  0.09615330    -0.12800
C1433       C  0.25722329  0.85350281  0.09865400     0.03900
C1434       C  0.23324769  0.85147394  0.08650235    -0.24900
H1435       H  0.19178167  0.88874998  0.03740221     0.08900
H1436       H  0.19088643  0.85239359  0.06143410     0.12600
H1437       H  0.27981549  0.92972997  0.05447160     0.12500
H1438       H  0.30389195  0.91044487  0.08047459     0.12200
H1439       H  0.30153250  0.87635830  0.10541051     0.12800
H1440       H  0.21357301  0.83502288  0.08826562     0.14700
C1441       C  0.25749463  0.57339392  0.95625487    -0.05300
C1442       C  0.28715907  0.58025520  0.94959091    -0.05200
C1443       C  0.29095754  0.59829125  0.93489314    -0.23400
C1444       C  0.26502102  0.60912929  0.92648561     0.18800
C1445       C  0.23518975  0.60312144  0.93352073     0.16000
C1446       C  0.23169738  0.58573320  0.94851011    -0.18400
C1447       C  0.20917483  0.61334023  0.92502951    -0.20200
C1448       C  0.21248704  0.62842070  0.90940891    -0.12800
C1449       C  0.24188961  0.63387657  0.90204594     0.03900
C1450       C  0.26821893  0.62476816  0.91085340    -0.24900
H1451       H  0.30718823  0.57064228  0.95542030     0.08900
H1452       H  0.31399675  0.60271164  0.92973695     0.12600
H1453       H  0.20876548  0.58010087  0.95359664     0.12500
H1454       H  0.18617186  0.60898969  0.93025566     0.12200
H1455       H  0.19186123  0.63551338  0.90298284     0.12800
H1456       H  0.29100827  0.62889743  0.90534035     0.14700
C1457       C  0.24475195  0.84396927  0.90557553    -0.05300
C1458       C  0.27431564  0.85558498  0.91092734    -0.05200
C1459       C  0.27772951  0.87552970  0.92476434    -0.23400
C1460       C  0.25162512  0.88420158  0.93354277     0.18800
C1461       C  0.22179507  0.87187806  0.92866645     0.16000
C1462       C  0.21855669  0.85171187  0.91474323    -0.18400
C1463       C  0.19570339  0.88051624  0.93758004    -0.20200
C1464       C  0.19910641  0.90171960  0.95090579    -0.12800
C1465       C  0.22858423  0.91447195  0.95547426     0.03900
C1466       C  0.25481357  0.90542651  0.94691453    -0.24900
H1467       H  0.29489703  0.84970189  0.90420053     0.08900
H1468       H  0.30075252  0.88456768  0.92841947     0.12600
H1469       H  0.19567164  0.84265271  0.91087932     0.12500
H1470       H  0.17268556  0.87124023  0.93408766     0.12200
H1471       H  0.17874767  0.90858042  0.95750390     0.12800
H1472       H  0.27755839  0.91532329  0.95054345     0.14700
C1473       C  0.51329676  0.63629913  0.70043386    -0.05300
C1474       C  0.03808092  0.65859973  0.69826332    -0.05200
C1475       C  0.03895223  0.68675422  0.70715849    -0.23400
C1476       C  0.01526934  0.69295949  0.71858850     0.18800
C1477       C  0.49098467  0.67010476  0.72116347     0.16000
C1478       C  0.48998955  0.64224761  0.71205407    -0.18400
C1479       C  0.46809092  0.67515222  0.73298881    -0.20200
C1480       C  0.46860773  0.70271216  0.74197787    -0.12800
C1481       C  0.99136549  0.72728802  0.73905510     0.03900
C1482       C  0.01540501  0.72132121  0.72754844    -0.24900
H1483       H  0.05641886  0.65457324  0.68939208     0.08900
H1484       H  0.05804156  0.70370436  0.70502509     0.12600
H1485       H  0.47103806  0.62505702  0.71408903     0.12500
H1486       H  0.44985621  0.65744557  0.73554685     0.12200
H1487       H  0.45104031  0.70378059  0.75159012     0.12800
H1488       H  0.03425588  0.73866133  0.72568180     0.14700
C1489       C  0.49988103  0.88027896  0.69897867    -0.05300
C1490       C  0.50057214  0.85372668  0.68886950    -0.05200
C1491       C  0.49818020  0.82420744  0.69631069    -0.23400
C1492       C  0.49525625  0.82087245  0.71400110     0.18800
C1493       C  0.99425844  0.84776001  0.72407592     0.16000
C1494       C  0.99647431  0.87716554  0.71652235    -0.18400
C1495       C  0.99123096  0.84499129  0.74160996    -0.20200
C1496       C  0.99005455  0.81604116  0.74922890    -0.12800
C1497       C  0.99208984  0.78854609  0.73967276     0.03900
C1498       C  0.49367000  0.79134287  0.72179664    -0.24900
H1499       H  0.50296159  0.85588962  0.67522454     0.08900
H1500       H  0.49888748  0.80405867  0.68826269     0.12600
H1501       H  0.99576540  0.89770646  0.72430115     0.12500
H1502       H  0.99023925  0.86530126  0.74952391     0.12200
H1503       H  0.98851739  0.81503558  0.76294921     0.12800
H1504       H  0.49393175  0.77104985  0.71390069     0.14700
C1505       C  0.02223729  0.75796305  0.76101756    -0.05300
C1506       C  0.04647550  0.78151332  0.75928432    -0.05200
C1507       C  0.07316069  0.78206400  0.76925042    -0.23400
C1508       C  0.07798933  0.75805334  0.78053062     0.18800
C1509       C  0.05566406  0.73289251  0.78169499     0.16000
C1510       C  0.02786074  0.73314288  0.77213922    -0.18400
C1511       C  0.06190164  0.70779313  0.79222093    -0.20200
C1512       C  0.08985559  0.70779302  0.80138724    -0.12800
C1513       C  0.11166286  0.73325627  0.80057592     0.03900
C1514       C  0.10538707  0.75843926  0.79022550    -0.24900
H1515       H  0.04577518  0.79982446  0.75001209     0.08900
H1516       H  0.09055689  0.80098750  0.76772145     0.12600
H1517       H  0.01069927  0.71391293  0.77319410     0.12500
H1518       H  0.04534115  0.68806000  0.79323836     0.12200
H1519       H  0.09416022  0.68808680  0.80934515     0.12800
H1520       H  0.12228479  0.77796413  0.78935019     0.14700
C1521       C  0.46137013  0.75802875  0.76011629    -0.05300
C1522       C  0.43354823  0.75999668  0.75064370    -0.05200
C1523       C  0.40488499  0.76054103  0.75847698    -0.23400
C1524       C  0.40281521  0.75905473  0.77611680     0.18800
C1525       C  0.43011356  0.75758421  0.78604173     0.16000
C1526       C  0.45927760  0.75755688  0.77803875    -0.18400
C1527       C  0.42757680  0.75582298  0.80380623    -0.20200
C1528       C  0.39837555  0.75497127  0.81151301    -0.12800
C1529       C  0.37138300  0.75626982  0.80159821     0.03900
C1530       C  0.37372294  0.75861705  0.78394719    -0.24900
H1531       H  0.43413010  0.76069662  0.73689308     0.08900
H1532       H  0.38424810  0.76176107  0.75067343     0.12600
H1533       H  0.47989288  0.75716346  0.78584125     0.12500
H1534       H  0.44808409  0.75464207  0.81170679     0.12200
H1535       H  0.39678392  0.75305273  0.82520435     0.12800
H1536       H  0.35281474  0.75948318  0.77631009     0.14700
C1537       C  0.28498814  0.49733183  0.74220967    -0.05300
C1538       C  0.31510405  0.00141778  0.75239054    -0.05200
C1539       C  0.34430516  0.00444766  0.74488475    -0.23400
C1540       C  0.34704411  0.00652329  0.72723445     0.18800
C1541       C  0.31759911  0.50202711  0.71666018     0.16000
C1542       C  0.28807150  0.49962446  0.72432355    -0.18400
C1543       C  0.32058112  0.50235097  0.69889612    -0.20200
C1544       C  0.34995777  0.50339143  0.69139098    -0.12800
C1545       C  0.37689203  0.50428779  0.70147214     0.03900
C1546       C  0.37639239  0.00757378  0.71953309    -0.24900
H1547       H  0.31394709  0.99900539  0.76607205     0.08900
H1548       H  0.36477534  0.00451009  0.75290595     0.12600
H1549       H  0.26789088  0.49907559  0.71616198     0.12500
H1550       H  0.30018410  0.50130681  0.69079800     0.12200
H1551       H  0.35169784  0.50316681  0.67767427     0.12800
H1552       H  0.39715450  0.00652810  0.72726566     0.14700
C1553       C  0.22480542  0.48947715  0.73923356    -0.05300
C1554       C  0.22414174  0.96837551  0.72685691    -0.05200
C1555       C  0.19934170  0.96702384  0.71519946    -0.23400
C1556       C  0.17727286  0.98942755  0.71536621     0.18800
C1557       C  0.17647457  0.50951997  0.72800374     0.16000
C1558       C  0.20089486  0.51043986  0.73995687    -0.18400
C1559       C  0.15477334  0.53227996  0.72804105    -0.20200
C1560       C  0.13134445  0.53227766  0.71570030    -0.12800
C1561       C  0.12838525  0.50900855  0.70334843     0.03900
C1562       C  0.15268532  0.98901519  0.70339110    -0.24900
H1563       H  0.24109752  0.95110024  0.72606105     0.08900
H1564       H  0.19776394  0.94871428  0.70585054     0.12600
H1565       H  0.20073942  0.52784899  0.74968758     0.12500
H1566       H  0.15631991  0.55055560  0.73741502     0.12200
H1567       H  0.11529029  0.55045852  0.71590120     0.12800
H1568       H  0.15038605  0.97085470  0.69396115     0.14700
C1569       C  0.25198171  0.51813071  0.76458046    -0.05300
C1570       C  0.25082055  0.51372933  0.78241550    -0.05200
C1571       C  0.24832823  0.53856057  0.79350752    -0.23400
C1572       C  0.24806038  0.56881051  0.78730438     0.18800
C1573       C  0.25142397  0.57421727  0.76970399     0.16000
C1574       C  0.25379466  0.54909730  0.75857851    -0.18400
C1575       C  0.25225351  0.60470865  0.76354272    -0.20200
C1576       C  0.24962536  0.62948589  0.77472472    -0.12800
C1577       C  0.24570800  0.62419828  0.79219093     0.03900
C1578       C  0.24505343  0.59379301  0.79844283    -0.24900
H1579       H  0.25225280  0.49129631  0.78818704     0.08900
H1580       H  0.24683227  0.53405282  0.80703444     0.12600
H1581       H  0.25615684  0.55347211  0.74506800     0.12500
H1582       H  0.25505295  0.60940365  0.75009582     0.12200
H1583       H  0.25072426  0.65285249  0.76974833     0.12800
H1584       H  0.24272434  0.58970126  0.81198158     0.14700
C1585       C  0.23416964  0.86888288  0.80110118    -0.05300
C1586       C  0.20834472  0.88705064  0.80192499    -0.05200
C1587       C  0.20673732  0.91372383  0.79192371    -0.23400
C1588       C  0.23076682  0.92264593  0.78070326     0.18800
C1589       C  0.25638356  0.90410983  0.77946603     0.16000
C1590       C  0.25811392  0.87756941  0.78975389    -0.18400
C1591       C  0.27980195  0.91233036  0.76786857    -0.20200
C1592       C  0.27899228  0.93957314  0.75839681    -0.12800
C1593       C  0.25528595  0.96037455  0.76065244     0.03900
C1594       C  0.22997332  0.95007929  0.77100573    -0.24900
H1595       H  0.18953464  0.88097752  0.81056153     0.08900
H1596       H  0.18681300  0.92751036  0.79308423     0.12600
H1597       H  0.27789906  0.86351212  0.78881488     0.12500
H1598       H  0.29899633  0.89774574  0.76617414     0.12200
H1599       H  0.29739575  0.94394574  0.74934239     0.12800
H1600       H  0.21048972  0.96445131  0.77224752     0.14700
C1601       C  0.07688223  0.72071448  0.04539297    -0.05300
C1602       C  0.08445956  0.69193114  0.05188934    -0.05200
C1603       C  0.10363981  0.69025435  0.06621429    -0.23400
C1604       C  0.11468648  0.71734571  0.07458668     0.18800
C1605       C  0.10745867  0.74639886  0.06798584     0.16000
C1606       C  0.08936168  0.74788999  0.05318015    -0.18400
C1607       C  0.11752340  0.77344491  0.07663189    -0.20200
C1608       C  0.13447742  0.77177907  0.09174655    -0.12800
C1609       C  0.14195866  0.74307779  0.09842493     0.03900
C1610       C  0.13212496  0.71588338  0.08967075    -0.24900
H1611       H  0.07481212  0.67077515  0.04613053     0.08900
H1612       H  0.10892614  0.66777141  0.07109008     0.12600
H1613       H  0.08330311  0.77013167  0.04826633     0.12500
H1614       H  0.11192545  0.79588465  0.07182604     0.12200
H1615       H  0.14170777  0.79302880  0.09823932     0.12800
H1616       H  0.13760375  0.69354962  0.09464597     0.14700
C1617       C  0.42155095  0.75056828  0.04432054    -0.05300
C1618       C  0.41007175  0.77956585  0.04734927    -0.06000
C1619       C  0.39212659  0.78420987  0.06174685    -0.23400
C1620       C  0.38570868  0.75991464  0.07330427     0.18800
C1621       C  0.39678415  0.73051535  0.07000023     0.16000
C1622       C  0.41436220  0.72600341  0.05548390    -0.18400
C1623       C  0.39071368  0.70619906  0.08144901    -0.20200
C1624       C  0.37369383  0.71080884  0.09606574    -0.12800
C1625       C  0.36250429  0.73982721  0.09956515     0.03900
C1626       C  0.36868294  0.76444226  0.08815227    -0.24900
H1627       H  0.41585700  0.79876070  0.03886534     0.08900
H1628       H  0.38385006  0.80688796  0.06402836     0.12600
H1629       H  0.42358884  0.70372379  0.05315692     0.12500
H1630       H  0.39917250  0.68360552  0.07911695     0.12200
H1631       H  0.36930249  0.69152487  0.10468513     0.12800
H1632       H  0.36005911  0.78687852  0.09069811     0.14700
C1633       C  0.13935158  0.72895645  0.90480232    -0.05300
C1634       C  0.13642677  0.75762401  0.91273462    -0.05200
C1635       C  0.12055772  0.75950299  0.92798956    -0.23400
C1636       C  0.10701565  0.73275706  0.93554574     0.18800
C1637       C  0.11036511  0.70361707  0.92795942     0.16000
C1638       C  0.12684546  0.70185468  0.91267768    -0.18400
C1639       C  0.09612479  0.67697480  0.93547098    -0.20200
C1640       C  0.07753649  0.67942019  0.94983764    -0.12800
C1641       C  0.07352650  0.70842089  0.95702863     0.03900
C1642       C  0.08901337  0.73488285  0.95015323    -0.24900
H1643       H  0.14611909  0.77882388  0.90702202     0.08900
H1644       H  0.11823103  0.78197692  0.93365357     0.12600
H1645       H  0.12898045  0.67964667  0.90668196     0.12500
H1646       H  0.09841367  0.65444960  0.92987759     0.12200
H1647       H  0.06539737  0.65890349  0.95499841     0.12800
H1648       H  0.08549592  0.75729669  0.95564019     0.14700
C1649       C  0.41835590  0.74329788  0.95571563    -0.05300
C1650       C  0.40964268  0.77335474  0.95232857    -0.05200
C1651       C  0.39013347  0.77910841  0.93855997    -0.23400
C1652       C  0.37905514  0.75482612  0.92796611     0.18800
C1653       C  0.38704907  0.72434476  0.93169153     0.16000
C1654       C  0.40657003  0.71877578  0.94553959    -0.18400
C1655       C  0.37599334  0.69998562  0.92126979    -0.20200
C1656       C  0.35787336  0.70574501  0.90703529    -0.12800
C1657       C  0.35040462  0.73598696  0.90283645     0.03900
C1658       C  0.36070362  0.76048688  0.91354443    -0.24900
H1659       H  0.41867940  0.79247459  0.96009131     0.08900
H1660       H  0.38422225  0.80259671  0.93600412     0.12600
H1661       H  0.41335431  0.69556844  0.94816110     0.12500
H1662       H  0.38171349  0.67648632  0.92398580     0.12200
H1663       H  0.35001718  0.68635668  0.89914598     0.12800
H1664       H  0.35494240  0.78385506  0.91054525     0.14700
C1665       C  0.27381944  0.49082453  0.26325394    -0.05300
C1666       C  0.27587208  0.96689551  0.27544506    -0.05200
C1667       C  0.30107657  0.96560445  0.28670426    -0.23400
C1668       C  0.32571663  0.98829785  0.28618114     0.18800
C1669       C  0.32504393  0.51043541  0.27377434     0.16000
C1670       C  0.30061309  0.51133630  0.26207055    -0.18400
C1671       C  0.34954378  0.53319603  0.27332065    -0.20200
C1672       C  0.37329357  0.53324638  0.28537165    -0.12800
C1673       C  0.37358522  0.51005158  0.29781067     0.03900
C1674       C  0.35055607  0.98816452  0.29784907    -0.24900
H1675       H  0.25701383  0.94931121  0.27633720     0.08900
H1676       H  0.30103698  0.94711919  0.29599993     0.12600
H1677       H  0.30290329  0.52854196  0.25212151     0.12500
H1678       H  0.34999913  0.55141853  0.26384954     0.12200
H1679       H  0.39165415  0.55141433  0.28487838     0.12800
H1680       H  0.35088504  0.97021718  0.30745653     0.14700
C1681       C  0.21397237  0.49650778  0.26020785    -0.05300
C1682       C  0.18757884  0.99978142  0.25088700    -0.05200
C1683       C  0.15876254  0.00334292  0.25802795    -0.23400
C1684       C  0.15538833  0.00262270  0.27560125     0.18800
C1685       C  0.18091735  0.50157419  0.28502435     0.16000
C1686       C  0.21042462  0.49870129  0.27796534    -0.18400
C1687       C  0.17703663  0.50237903  0.30269002    -0.20200
C1688       C  0.14746079  0.50415154  0.30955455    -0.12800
C1689       C  0.12150999  0.50547395  0.29885693     0.03900
C1690       C  0.12604639  0.00480397  0.28275369    -0.24900
H1691       H  0.18914018  0.99975212  0.23716311     0.08900
H1692       H  0.13898279  0.00607850  0.24975169     0.12600
H1693       H  0.23023599  0.49849029  0.28638190     0.12500
H1694       H  0.19674913  0.50113179  0.31117760     0.12200
H1695       H  0.14472227  0.50419766  0.32322145     0.12800
H1696       H  0.10596140  0.00750787  0.27467658     0.14700
C1697       C  0.24870748  0.52434594  0.24105408    -0.05300
C1698       C  0.24940181  0.55197082  0.25070466    -0.05200
C1699       C  0.24963052  0.58087213  0.24307604    -0.23400
C1700       C  0.24895694  0.58340607  0.22545539     0.18800
C1701       C  0.24844220  0.55642277  0.21535142     0.16000
C1702       C  0.24807602  0.52703039  0.22316662    -0.18400
C1703       C  0.24784456  0.55944283  0.19758869    -0.20200
C1704       C  0.24751500  0.58874387  0.19004734    -0.12800
C1705       C  0.24763394  0.61533314  0.20015208     0.03900
C1706       C  0.24853005  0.61261313  0.21780977    -0.24900
H1707       H  0.24945360  0.55098648  0.26445570     0.08900
H1708       H  0.24999270  0.60126202  0.25101643     0.12600
H1709       H  0.24622981  0.50669056  0.21526127     0.12500
H1710       H  0.24765567  0.53920952  0.18955045     0.12200
H1711       H  0.24732185  0.59073033  0.17632975     0.12800
H1712       H  0.24897683  0.63326834  0.22556779     0.14700
C1713       C  0.24344649  0.96292528  0.24078570    -0.05300
C1714       C  0.21909108  0.93976101  0.24321296    -0.05200
C1715       C  0.21723245  0.91243939  0.23395988    -0.23400
C1716       C  0.24026893  0.90625619  0.22241062     0.18800
C1717       C  0.26605537  0.92764610  0.22043891     0.16000
C1718       C  0.26753166  0.95577799  0.22960682    -0.18400
C1719       C  0.28985621  0.92027500  0.20937601    -0.20200
C1720       C  0.28770047  0.89241656  0.20024064    -0.12800
C1721       C  0.26146980  0.87163394  0.20174601     0.03900
C1722       C  0.23795784  0.87871819  0.21298746    -0.24900
H1723       H  0.20122263  0.94189552  0.25256906     0.08900
H1724       H  0.19782093  0.89582362  0.23607533     0.12600
H1725       H  0.28737011  0.97210539  0.22810079     0.12500
H1726       H  0.31006598  0.93606558  0.20773813     0.12200
H1727       H  0.30626882  0.88744242  0.19170426     0.12800
H1728       H  0.21790940  0.86264126  0.21451527     0.14700
C1729       C  0.74540283  0.49336192  0.25110419    -0.02500
N1730       N  0.95201951  0.24655714  0.99966394    -0.36700
N1731       N  0.49845165  0.23969503  0.02628108    -0.57200
N1732       N  0.54407794  0.22574780  0.00110644    -0.36700
N1733       N  0.49666000  0.22875602  0.97453992    -0.57200
C1734       C  0.93377887  0.24630346  0.01356411     0.26900
C1735       C  0.93322049  0.24180959  0.98600473     0.26900
C1736       C  0.56016189  0.21959939  0.01539434     0.26900
C1737       C  0.55956625  0.21462761  0.98784218     0.26900
C1738       C  0.97552599  0.25085087  0.03561409     0.35500
C1739       C  0.52382151  0.24019043  0.03643744     0.35500
C1740       C  0.97383044  0.23740909  0.96401360     0.35500
C1741       C  0.52202650  0.22645092  0.96477602     0.35500
C1742       C  0.90295324  0.24172793  0.00865559    -0.21900
C1743       C  0.90260052  0.23898382  0.99123254    -0.21900
C1744       C  0.58660273  0.20491667  0.01109967    -0.21900
C1745       C  0.58624660  0.20182326  0.99369575    -0.21900
C1746       C  0.98638425  0.25842161  0.05176969    -0.23000
C1747       C  0.51687914  0.25146994  0.05233247    -0.23000
C1748       C  0.98464817  0.24010565  0.94750572    -0.23000
C1749       C  0.51507112  0.23300803  0.94797314    -0.23000
C1750       C  0.94417331  0.25125857  0.03046156    -0.18300
C1751       C  0.94293582  0.24152465  0.96890523    -0.18300
C1752       C  0.55114906  0.21731258  0.97055179    -0.18300
C1753       C  0.55248710  0.22841642  0.03205979    -0.18300
H1754       H  0.88278990  0.24066270  0.01676607     0.14600
H1755       H  0.88214263  0.23532325  0.98331306     0.14600
H1756       H  0.60451827  0.19753380  0.01958129     0.14600
H1757       H  0.60377454  0.19154957  0.98619683     0.14600
H1758       H  0.97348583  0.26726989  0.06222916     0.12800
H1759       H  0.53195111  0.25401281  0.06332720     0.12800
H1760       H  0.97197632  0.24645021  0.93625659     0.12800
H1761       H  0.53036799  0.23292952  0.93714579     0.12800
H1762       H  0.97556227  0.25292178  0.99932230     0.26100
H1763       H  0.52547931  0.23961696  0.00021804     0.26100
C1764       C  0.75600486  0.99287407  0.75177341    -0.02500
C1765       C  0.49295113  0.25882183  0.75133859    -0.02500
N1766       N  0.75121732  0.04028659  0.00068871    -0.36700
N1767       N  0.74125858  0.49409813  0.97475002    -0.57200
N1768       N  0.73161537  0.44669056  0.00083052    -0.36700
N1769       N  0.74351949  0.49390208  0.02670043    -0.57200
C1770       C  0.76070606  0.05754020  0.98710091     0.26900
C1771       C  0.75870832  0.05683759  0.01482696     0.26900
C1772       C  0.73420167  0.42881779  0.98693853     0.26900
C1773       C  0.73644566  0.42876090  0.01458682     0.26900
C1774       C  0.74673643  0.01896781  0.96429367     0.35500
C1775       C  0.73259223  0.46978282  0.96470284     0.35500
C1776       C  0.74218654  0.01693047  0.03651182     0.35500
C1777       C  0.73459680  0.46950553  0.03662619     0.35500
C1778       C  0.77390733  0.08571886  0.99266441    -0.21900
C1779       C  0.77261634  0.08529887  0.01015005    -0.21900
C1780       C  0.73999052  0.39900616  0.99191873    -0.21900
C1781       C  0.74159929  0.39901580  0.00937018    -0.21900
C1782       C  0.74066280  0.01093386  0.94749978    -0.23000
C1783       C  0.72862070  0.47963569  0.94811815    -0.23000
C1784       C  0.73386886  0.00777080  0.05285575    -0.23000
C1785       C  0.72795115  0.47936949  0.05284228    -0.23000
C1786       C  0.75634449  0.04917151  0.96982789    -0.18300
C1787       C  0.75180500  0.04755890  0.03174205    -0.18300
C1788       C  0.73509054  0.43825981  0.03171992    -0.18300
C1789       C  0.73092071  0.43847712  0.96989765    -0.18300
H1790       H  0.78325691  0.10474161  0.98493396     0.14600
H1791       H  0.78075148  0.10398767  0.01843639     0.14600
H1792       H  0.74308213  0.37934192  0.98381455     0.14600
H1793       H  0.74606935  0.37932466  0.01729621     0.14600
H1794       H  0.74170191  0.02587762  0.93645152     0.12800
H1795       H  0.72248214  0.46560850  0.93711310     0.12800
H1796       H  0.73211144  0.02208010  0.06398692     0.12800
H1797       H  0.72061254  0.46528963  0.06364263     0.12800
H1798       H  0.73744189  0.01983679  0.00030979     0.26100
H1799       H  0.72407820  0.46897445  0.00094954     0.26100
C1800       C  0.83575283  0.24272446  0.88604668     0.42400
N1801       N  0.80840103  0.23141485  0.86388514     0.01300
C1802       C  0.70773260  0.32324043  0.82089059    -0.06600
H1803       H  0.69049574  0.31297536  0.88636450     0.06800
C1804       C  0.66721465  0.20079300  0.87948394    -0.06900
Co1805     Co  0.77987571  0.28573609  0.84805445     0.74200
N1806       N  0.72444574  0.29863004  0.86851622    -0.26100
Co1807     Co  0.69992779  0.27426744  0.84930323     0.74100
C1808       C  0.65740574  0.22678853  0.88949024     0.42500
N1809       N  0.73310747  0.17286386  0.86310857     0.00900
N1810       N  0.67996514  0.24420196  0.86704262     0.01000
N1811       N  0.75995866  0.33102292  0.81979112    -0.47000
H1812       H  0.82598972  0.29439471  0.88384076     0.06800
N1813       N  0.75487903  0.30299908  0.86792082     0.01300
N1814       N  0.67601625  0.24891524  0.83020441     0.01000
C1815       C  0.64152046  0.23439303  0.81164931     0.42600
N1816       N  0.76357872  0.17699950  0.86283625    -0.25600
C1817       C  0.82421209  0.28103577  0.81725920    -0.06500
N1818       N  0.82562920  0.21944056  0.87579796    -0.46700
N1819       N  0.65431685  0.25919241  0.82006276    -0.46900
C1820       C  0.83907138  0.25603074  0.80875986     0.42400
N1821       N  0.75149282  0.30888225  0.83085045     0.01300
N1822       N  0.76152198  0.18212433  0.82558573    -0.25600
N1823       N  0.80657213  0.26153614  0.86541684    -0.26100
N1824       N  0.73109963  0.17697467  0.82591121     0.00900
H1825       H  0.79707298  0.16542106  0.80956819     0.06800
H1826       H  0.65193528  0.18330061  0.81492791     0.06900
N1827       N  0.72105987  0.30404175  0.83163566    -0.26100
N1828       N  0.68137740  0.21398434  0.86585951    -0.25700
N1829       N  0.80681044  0.23679735  0.82719146     0.01300
C1830       C  0.74258558  0.32536421  0.89094473     0.42700
C1831       C  0.77513274  0.16202361  0.87624562    -0.07000
N1832       N  0.67819466  0.21874450  0.82896917    -0.25700
H1833       H  0.66537068  0.17636502  0.88240313     0.06800
N1834       N  0.76661893  0.31892554  0.88100258    -0.47000
H1835       H  0.79930950  0.16225414  0.87986038     0.06800
C1836       C  0.74574955  0.15188734  0.80414331     0.42500
C1837       C  0.82321268  0.27093870  0.87919908    -0.06500
Co1838     Co  0.78549888  0.20644852  0.84478291     0.73800
N1839       N  0.72289332  0.15605179  0.87619509    -0.46700
C1840       C  0.73345702  0.34104246  0.81296189     0.42800
N1841       N  0.82749288  0.22941231  0.81584112    -0.46700
Co1842     Co  0.70547505  0.19498339  0.84584003     0.73900
C1843       C  0.65724037  0.20751552  0.81759172    -0.07000
C1844       C  0.71444628  0.31208356  0.88263606    -0.06600
N1845       N  0.80456269  0.26694112  0.82836489    -0.26100
N1846       N  0.66593549  0.25275797  0.88091417    -0.46900
H1847       H  0.68305687  0.32538991  0.81948242     0.06800
C1848       C  0.77277796  0.16722120  0.81233717    -0.07000
Cl1849     Cl  0.74269545  0.24039904  0.84686232    -0.50000
C1850       C  0.74793836  0.14839094  0.88518310     0.42600
H1851       H  0.83011602  0.30563538  0.81669616     0.06800
N1852       N  0.72075835  0.15829872  0.81349936    -0.46700
C1853       C  0.75717398  0.34282506  0.19108865     0.42400
N1854       N  0.76824955  0.30885840  0.17261897     0.01300
C1855       C  0.66991478  0.21322166  0.12322114    -0.06600
H1856       H  0.65793669  0.18913553  0.18647551     0.06800
C1857       C  0.77658932  0.16005632  0.18480856    -0.06900
Co1858     Co  0.71153094  0.28073248  0.15495852     0.74200
N1859       N  0.68676977  0.22419814  0.17361252    -0.26100
Co1860     Co  0.71045981  0.20065485  0.15510692     0.74100
C1861       C  0.74875455  0.14494664  0.19220989     0.42500
N1862       N  0.81573703  0.23139304  0.17318963     0.00900
N1863       N  0.73562125  0.17772924  0.17342002     0.01000
N1864       N  0.67172941  0.26546132  0.12334218    -0.47000
H1865       H  0.70476544  0.33248935  0.18681940     0.06800
N1866       N  0.68717260  0.25469328  0.17362416     0.01300
N1867       N  0.73464274  0.17836383  0.13645588     0.01000
C1868       C  0.74602754  0.15190927  0.11463441     0.42600
N1869       N  0.81642453  0.26189266  0.17275801    -0.25600
C1870       C  0.72554497  0.32185992  0.12300230    -0.06500
N1871       N  0.78073955  0.33048943  0.18286592    -0.46700
N1872       N  0.72227042  0.16182799  0.12373865    -0.46900
C1873       C  0.75341026  0.33469916  0.11453780     0.42400
N1874       N  0.68704078  0.25458185  0.13645689     0.01300
N1875       N  0.81466793  0.26119379  0.13561409    -0.25600
N1876       N  0.73762680  0.30657540  0.17323663    -0.26100
N1877       N  0.81453765  0.23077372  0.13605611     0.00900
H1878       H  0.83607397  0.29552656  0.11871299     0.06800
H1879       H  0.79849435  0.16113784  0.11957198     0.06900
N1880       N  0.68652541  0.22413267  0.13660744    -0.26100
N1881       N  0.76622293  0.17991481  0.17336023    -0.25700
N1882       N  0.76666353  0.30744440  0.13579056     0.01300
C1883       C  0.65308667  0.24049856  0.19241921     0.42700
C1884       C  0.83608499  0.27309345  0.18482490    -0.07000
N1885       N  0.76522484  0.17997329  0.13632839    -0.25700
H1886       H  0.80044735  0.15431930  0.18630849     0.06800
N1887       N  0.66701661  0.26525599  0.18444144    -0.47000
H1888       H  0.84235518  0.29728849  0.18705502     0.06800
C1889       C  0.84197587  0.24365733  0.11427642     0.42500
C1890       C  0.72847613  0.32691071  0.18473416    -0.06500
Co1891     Co  0.79197362  0.28526052  0.15421379     0.73800
N1892       N  0.83406261  0.22083618  0.18516699    -0.46700
C1893       C  0.66031165  0.24073924  0.11438068     0.42800
N1894       N  0.77803092  0.32498179  0.12320686    -0.46700
Co1895     Co  0.79090051  0.20511668  0.15480272     0.73900
C1896       C  0.77464391  0.16381601  0.12300789    -0.07000
C1897       C  0.66574489  0.21318038  0.18495979    -0.06600
N1898       N  0.73607737  0.30547494  0.13605655    -0.26100
N1899       N  0.72425795  0.15657912  0.18426676    -0.46900
H1900       H  0.66605113  0.18913710  0.11983563     0.06800
C1901       C  0.83141952  0.27154611  0.12220386    -0.07000
Cl1902     Cl  0.75119691  0.24295843  0.15489161    -0.50000
C1903       C  0.84759591  0.24580893  0.19313612     0.42600
H1904       H  0.70146533  0.32514866  0.12015538     0.06800
N1905       N  0.83066394  0.21939237  0.12359541    -0.46700
C1906       C  0.00331240  0.40933195  0.69089194     0.42400
N1907       N  0.98945590  0.44230423  0.67243060     0.01300
C1908       C  0.58161667  0.03746394  0.61980959    -0.06600
H1909       H  0.59930843  0.06467626  0.68509599     0.06800
C1910       C  0.98448459  0.09353446  0.68543157    -0.06900
Co1911     Co  0.54370590  0.46988449  0.65306447     0.74200
N1912       N  0.57180016  0.02926038  0.67162432    -0.26100
Co1913     Co  0.54629831  0.05272821  0.65329762     0.74100
C1914       C  0.01335411  0.10930027  0.69158512     0.42500
N1915       N  0.94239089  0.02278250  0.67424184     0.00900
N1916       N  0.52370936  0.07657432  0.67224517     0.01000
N1917       N  0.57851634  0.48374614  0.62039305    -0.47000
H1918       H  0.55474278  0.41827899  0.68415174     0.06800
N1919       N  0.57017853  0.49596448  0.67087413     0.01300
N1920       N  0.51962423  0.07478071  0.63507493     0.01000
C1921       C  0.00363887  0.10089947  0.61388902     0.42600
N1922       N  0.94031235  0.48824146  0.67375837    -0.25600
C1923       C  0.52700534  0.42941962  0.62170004    -0.06500
N1924       N  0.97853838  0.42130082  0.68345693    -0.46700
N1925       N  0.52936600  0.09101875  0.62157939    -0.46900
C1926       C  0.99877414  0.41713582  0.61336642     0.42400
N1927       N  0.56559004  0.49548017  0.63386911     0.01300
N1928       N  0.93810291  0.48872629  0.63650977    -0.25600
N1929       N  0.52006766  0.44441393  0.67192649    -0.26100
N1930       N  0.94029179  0.02344412  0.63719953     0.00900
H1931       H  0.91799696  0.45472967  0.61896137     0.06800
H1932       H  0.95271278  0.09237371  0.62180599     0.06900
N1933       N  0.56760513  0.02804735  0.63431316    -0.26100
N1934       N  0.99314807  0.07398498  0.67344872    -0.25700
N1935       N  0.98671620  0.44288592  0.63533458     0.01300
C1936       C  0.60606547  0.01324230  0.69052998     0.42700
C1937       C  0.92012564  0.47703909  0.68550391    -0.07000
N1938       N  0.98919278  0.07355057  0.63653434    -0.25700
H1939       H  0.96081732  0.09861272  0.68806572     0.06800
N1940       N  0.59005045  0.48524086  0.68204287    -0.47000
H1941       H  0.91243516  0.45296309  0.68699873     0.06800
C1942       C  0.91259397  0.01145020  0.61513151     0.42500
C1943       C  0.53087816  0.42421115  0.68305951    -0.06500
Co1944     Co  0.96314396  0.46500973  0.65455445     0.73800
N1945       N  0.92318801  0.03344912  0.68554510    -0.46700
C1946       C  0.58954663  0.00888830  0.61144747     0.42800
N1947       N  0.97457792  0.42606714  0.62257983    -0.46700
Co1948     Co  0.96592435  0.04876912  0.65553862     0.73900
C1949       C  0.97712470  0.08956116  0.62386324    -0.07000
C1950       C  0.59267758  0.04047818  0.68311293    -0.06600
N1951       N  0.51730212  0.44501922  0.63506514    -0.26100
N1952       N  0.53664004  0.09772043  0.68269106    -0.46900
H1953       H  0.58465006  0.06110206  0.61540217     0.06800
C1954       C  0.92143129  0.47855645  0.62292047    -0.07000
Cl1955     Cl  0.00535323  0.01068561  0.65465757    -0.50000
C1956       C  0.90960702  0.00875320  0.69370358     0.42600
H1957       H  0.55090727  0.42652958  0.61844974     0.06800
N1958       N  0.92416050  0.03526247  0.62469647    -0.46700
C1959       C  0.59135750  0.00350344  0.30755135     0.42400
N1960       N  0.56078236  0.01983344  0.32640741     0.01300
C1961       C  0.96642631  0.43369321  0.38028260    -0.06600
H1962       H  0.93478816  0.42227251  0.31682319     0.06800
C1963       C  0.91638656  0.04030145  0.31727006    -0.06900
Co1964     Co  0.53292033  0.46862768  0.34614014     0.74200
N1965       N  0.97320530  0.44655614  0.32959643    -0.26100
Co1966     Co  0.95361948  0.47310667  0.34823804     0.74100
C1967       C  0.89985594  0.01281417  0.31015091     0.42500
N1968       N  0.98857233  0.07553736  0.32774954     0.00900
N1969       N  0.93023457  0.49825546  0.33015457     0.01000
N1970       N  0.51856493  0.43185634  0.37907844    -0.47000
H1971       H  0.57944885  0.45520391  0.31328601     0.06800
N1972       N  0.50352122  0.44464661  0.32874724     0.01300
N1973       N  0.93600092  0.50017070  0.36700640     0.01000
C1974       C  0.91315133  0.01475846  0.38992042     0.42600
N1975       N  0.51864536  0.07240615  0.32642185    -0.25600
C1976       C  0.57700134  0.48341863  0.37685558    -0.06500
N1977       N  0.58158742  0.02913822  0.31493463    -0.46700
N1978       N  0.92265299  0.48946524  0.38103650    -0.46900
C1979       C  0.59270927  0.00992019  0.38426598     0.42400
N1980       N  0.50767214  0.44742837  0.36602948     0.01300
N1981       N  0.52322293  0.07409400  0.36344379    -0.25600
N1982       N  0.55739787  0.49113121  0.32649289    -0.26100
N1983       N  0.99310096  0.07632951  0.36497670     0.00900
H1984       H  0.56263501  0.09166563  0.37796422     0.06800
H1985       H  0.92580814  0.06625787  0.38435543     0.06900
N1986       N  0.97732498  0.44896380  0.36653396    -0.26100
N1987       N  0.93432963  0.02953760  0.32962815    -0.25700
N1988       N  0.56458477  0.02248128  0.36317293     0.01300
C1989       C  0.98502968  0.41238452  0.31002547     0.42700
C1990       C  0.52949972  0.08983805  0.31335655    -0.07000
N1991       N  0.93827072  0.03104744  0.36675978    -0.25700
H1992       H  0.91384943  0.06441574  0.31436917     0.06800
N1993       N  0.51158689  0.42444151  0.31722797    -0.47000
H1994       H  0.55360155  0.09364424  0.30986932     0.06800
C1995       C  0.01325043  0.10190116  0.38612717     0.42500
C1996       C  0.57502005  0.47936457  0.31452160    -0.06500
Co1997     Co  0.54224248  0.04761823  0.34470937     0.73800
N1998       N  0.97802438  0.09482511  0.31629877    -0.46700
C1999       C  0.99379793  0.42262326  0.38869105     0.42800
N2000       N  0.58405448  0.03402490  0.37488542    -0.46700
Co2001     Co  0.96301197  0.05371863  0.34730619     0.73900
C2002       C  0.92541107  0.04219428  0.38075999    -0.07000
C2003       C  0.95952455  0.42694519  0.31831329    -0.06600
N2004       N  0.56113352  0.49344036  0.36345815    -0.26100
N2005       N  0.90895715  0.48695752  0.31923758    -0.46900
H2006       H  0.94236553  0.43110757  0.38398853     0.06800
C2007       C  0.53781831  0.08970358  0.37604301    -0.07000
Cl2008     Cl  0.99730165  0.01060433  0.34673710    -0.50000
C2009       C  0.00239720  0.10429337  0.30655163     0.42600
H2010       H  0.57811988  0.45956203  0.38071443     0.06800
N2011       N  0.98601454  0.09283190  0.37845445    -0.46700
N2012       N  0.52389935  0.21346529  0.50016025    -0.36700
N2013       N  0.52328867  0.26130066  0.47424989    -0.57200
N2014       N  0.52761250  0.30886267  0.49996166    -0.36700
N2015       N  0.52585429  0.26111098  0.52598381    -0.57200
C2016       C  0.51367300  0.19634790  0.48667145     0.26900
C2017       C  0.51858370  0.19610221  0.51425619     0.26900
C2018       C  0.52127436  0.32572155  0.48602764     0.26900
C2019       C  0.52005086  0.32541151  0.51369023     0.26900
C2020       C  0.52485626  0.23613269  0.46431544     0.35500
C2021       C  0.53012082  0.28612534  0.46422105     0.35500
C2022       C  0.53209875  0.23662566  0.53580151     0.35500
C2023       C  0.53094365  0.28644916  0.53579143     0.35500
C2024       C  0.50224720  0.16748371  0.49225302    -0.21900
C2025       C  0.50548479  0.16727920  0.50968838    -0.21900
C2026       C  0.51000278  0.35354195  0.49093304    -0.21900
C2027       C  0.50909535  0.35328615  0.50842102    -0.21900
C2028       C  0.53282478  0.24499912  0.44789715    -0.23000
C2029       C  0.53633713  0.27667830  0.44786174    -0.23000
C2030       C  0.54135806  0.24648727  0.55189443    -0.23000
C2031       C  0.54051205  0.27807237  0.55190195    -0.23000
C2032       C  0.51614052  0.20557651  0.46945128    -0.18300
C2033       C  0.52621074  0.20541130  0.53103127    -0.18300
C2034       C  0.52458547  0.31671991  0.53080690    -0.18300
C2035       C  0.52667692  0.31702584  0.46908365    -0.18300
H2036       H  0.49286247  0.14844343  0.48455783     0.14600
H2037       H  0.49885160  0.14814767  0.51804730     0.14600
H2038       H  0.50313345  0.37208713  0.48277410     0.14600
H2039       H  0.50150371  0.37165085  0.51635449     0.14600
H2040       H  0.53516876  0.23024779  0.43698335     0.12800
H2041       H  0.54165139  0.29112309  0.43689174     0.12800
H2042       H  0.54726527  0.23233749  0.56264889     0.12800
H2043       H  0.54583801  0.29310436  0.56261421     0.12800
H2044       H  0.53663485  0.23458948  0.49971668     0.26100
H2045       H  0.53956089  0.28879160  0.50009364     0.26100
N2046       N  0.70326364  0.50030411  0.49853631    -0.36700
N2047       N  0.75126419  0.50937398  0.47341291    -0.57200
N2048       N  0.79891977  0.50905250  0.50018054    -0.36700
N2049       N  0.75112090  0.50466967  0.52523854    -0.57200
C2050       C  0.68561653  0.50283583  0.48442639     0.26900
C2051       C  0.68563247  0.50701772  0.51197988     0.26900
C2052       C  0.81669925  0.51911115  0.48701427     0.26900
C2053       C  0.81683212  0.51074113  0.51433179     0.26900
C2054       C  0.72726525  0.50181122  0.46281029     0.35500
C2055       C  0.77699443  0.51167947  0.46374003     0.35500
C2056       C  0.72545528  0.50232269  0.53493939     0.35500
C2057       C  0.77532322  0.49970423  0.53564939     0.35500
C2058       C  0.65597285  0.50991954  0.48896696    -0.21900
C2059       C  0.65606377  0.51287240  0.50635853    -0.21900
C2060       C  0.84656639  0.52689463  0.49283372    -0.21900
C2061       C  0.84672146  0.52127389  0.51005620    -0.21900
C2062       C  0.73778158  0.49955951  0.44629017    -0.23000
C2063       C  0.76919790  0.50613916  0.44684784    -0.23000
C2064       C  0.73341827  0.49643068  0.55167159    -0.23000
C2065       C  0.76492926  0.49447063  0.55209567    -0.23000
C2066       C  0.69570293  0.49951188  0.46755013    -0.18300
C2067       C  0.69505626  0.50705482  0.52921710    -0.18300
C2068       C  0.80690279  0.50237423  0.53088978    -0.18300
C2069       C  0.80746970  0.51917965  0.46975051    -0.18300
H2070       H  0.63653149  0.51341003  0.48059590     0.14600
H2071       H  0.63652116  0.51862741  0.51399001     0.14600
H2072       H  0.86639785  0.53513048  0.48539259     0.14600
H2073       H  0.86655749  0.52472792  0.51844003     0.14600
H2074       H  0.72419719  0.49428433  0.43495247     0.12800
H2075       H  0.78455513  0.50654177  0.43603451     0.12800
H2076       H  0.71811581  0.49384385  0.56247833     0.12800
H2077       H  0.77865425  0.49059110  0.56335640     0.12800
H2078       H  0.72523219  0.49199719  0.49899017     0.26100
H2079       H  0.77687698  0.49834359  0.49927258     0.26100
C2080       C  0.50325882  0.26201011  0.25138648    -0.02500
C2081       C  0.50444923  0.29427583  0.26029803    -0.05300
C2082       C  0.53013750  0.31616868  0.25916394    -0.05200
C2083       C  0.53125636  0.34367103  0.26843076    -0.23400
C2084       C  0.50638487  0.35080079  0.27866869     0.18800
C2085       C  0.97935825  0.33076111  0.27880818     0.16000
C2086       C  0.97832403  0.30317715  0.26941318    -0.18400
C2087       C  0.95404329  0.33829811  0.28867563    -0.20200
C2088       C  0.95574469  0.36509458  0.29856936    -0.12800
C2089       C  0.98287033  0.38477140  0.29891241     0.03900
C2090       C  0.50809676  0.37756548  0.28879357    -0.24900
H2091       H  0.54974407  0.31254243  0.25117854     0.08900
H2092       H  0.55177018  0.35931794  0.26765415     0.12600
H2093       H  0.95765252  0.28767426  0.26985027     0.12500
H2094       H  0.93305853  0.32325135  0.28892714     0.12200
H2095       H  0.93600648  0.36997285  0.30627054     0.12800
H2096       H  0.52902632  0.39273561  0.28883148     0.14700
C2097       C  0.50011764  0.23504259  0.26466810    -0.05300
C2098       C  0.99890588  0.24000373  0.28244464    -0.05200
C2099       C  0.99751347  0.21541382  0.29397969    -0.23400
C2100       C  0.99904193  0.18504564  0.28834306     0.18800
C2101       C  0.50180560  0.17934468  0.27079690     0.16000
C2102       C  0.50183608  0.20409055  0.25915714    -0.18400
C2103       C  0.50514726  0.14900439  0.26523199    -0.20200
C2104       C  0.50579444  0.12467288  0.27696084    -0.12800
C2105       C  0.00231459  0.13014857  0.29435273     0.03900
C2106       C  0.99874681  0.16035846  0.30000808    -0.24900
H2107       H  0.99985690  0.26276338  0.28791111     0.08900
H2108       H  0.99622280  0.22031177  0.30743639     0.12600
H2109       H  0.50388223  0.19942136  0.24570819     0.12500
H2110       H  0.50759561  0.14414214  0.25183875     0.12200
H2111       H  0.50863146  0.10145995  0.27244701     0.12800
H2112       H  0.99640652  0.16465958  0.31348466     0.14700
C2113       C  0.01714512  0.11752788  0.40283249    -0.05300
C2114       C  0.54635460  0.11906492  0.41088274    -0.05200
C2115       C  0.55119795  0.13457729  0.42622905    -0.23400
C2116       C  0.52698449  0.14913477  0.43388489     0.18800
C2117       C  0.99722976  0.14733724  0.42620822     0.16000
C2118       C  0.99240439  0.13131903  0.41075513    -0.18400
C2119       C  0.97317003  0.16240746  0.43389743    -0.20200
C2120       C  0.97897006  0.18011145  0.44855673    -0.12800
C2121       C  0.50871127  0.18258773  0.45587692     0.03900
C2122       C  0.53243787  0.16642849  0.44875394    -0.24900
H2123       H  0.56580814  0.10835737  0.40534983     0.08900
H2124       H  0.57410121  0.13563452  0.43196211     0.12600
H2125       H  0.96975125  0.13026534  0.40472166     0.12500
H2126       H  0.95018323  0.16133977  0.42827816     0.12200
H2127       H  0.96054082  0.19277081  0.45388349     0.12800
H2128       H  0.55549108  0.16870773  0.45430748     0.14700
C2129       C  0.52550870  0.34066167  0.45548339    -0.05300
C2130       C  0.55276036  0.35671870  0.44989301    -0.05200
C2131       C  0.55197155  0.37691064  0.43600191    -0.23400
C2132       C  0.52388870  0.38115189  0.42749450     0.18800
C2133       C  0.99621489  0.36564659  0.43344779     0.16000
C2134       C  0.99722192  0.34549011  0.44738701    -0.18400
C2135       C  0.96810940  0.36999126  0.42511362    -0.20200
C2136       C  0.96739954  0.38892836  0.41076045    -0.12800
C2137       C  0.99479146  0.40376515  0.40438535     0.03900
C2138       C  0.52300568  0.40007944  0.41296220    -0.24900
H2139       H  0.57470245  0.35304545  0.45605742     0.08900
H2140       H  0.57336323  0.38872955  0.43171833     0.12600
H2141       H  0.97622555  0.33295608  0.45173045     0.12500
H2142       H  0.94671358  0.35838769  0.42955068     0.12200
H2143       H  0.94537460  0.39134300  0.40444977     0.12800
H2144       H  0.54421201  0.41171136  0.40827104     0.14700
C2145       C  0.61315330  0.01281407  0.39928253    -0.05300
C2146       C  0.63160665  0.04022892  0.40188486    -0.05200
C2147       C  0.65107555  0.04347499  0.41603783    -0.23400
C2148       C  0.65216161  0.01944796  0.42791248     0.18800
C2149       C  0.63335531  0.99186409  0.42555825     0.16000
C2150       C  0.61295909  0.48879939  0.41112441    -0.18400
C2151       C  0.63546429  0.46616083  0.43644709    -0.20200
C2152       C  0.65559945  0.46891846  0.45042082    -0.12800
C2153       C  0.67208953  0.49714370  0.45382414     0.03900
C2154       C  0.67203016  0.02242349  0.44199609    -0.24900
H2155       H  0.63118633  0.05912579  0.39286653     0.08900
H2156       H  0.66531843  0.06474630  0.41767804     0.12600
H2157       H  0.60103440  0.46672580  0.40817039     0.12500
H2158       H  0.62334079  0.44402521  0.43383045     0.12200
H2159       H  0.65894458  0.44890096  0.45833532     0.12800
H2160       H  0.68689829  0.04329256  0.44371397     0.14700
C2161       C  0.89902967  0.01248251  0.40683986    -0.05300
C2162       C  0.89859097  0.48301088  0.41524682    -0.05200
C2163       C  0.88144572  0.47938739  0.43008028    -0.23400
C2164       C  0.86738443  0.50462109  0.43696792     0.18800
C2165       C  0.87011748  0.03471462  0.42961631     0.16000
C2166       C  0.88657675  0.03818167  0.41436645    -0.18400
C2167       C  0.85528686  0.05960041  0.43652659    -0.20200
C2168       C  0.83610151  0.05497709  0.45063347    -0.12800
C2169       C  0.83175196  0.52517080  0.45691227     0.03900
C2170       C  0.84749774  0.50039022  0.45078768    -0.24900
H2171       H  0.90837257  0.46290034  0.40981717     0.08900
H2172       H  0.87825370  0.45664717  0.43580462     0.12600
H2173       H  0.88828318  0.06039368  0.40797090     0.12500
H2174       H  0.85740183  0.08220834  0.43058249     0.12200
H2175       H  0.82334969  0.07389375  0.45529069     0.12800
H2176       H  0.84298556  0.47757801  0.45627983     0.14700
C2177       C  0.67202640  0.51343757  0.54232272    -0.05300
C2178       C  0.66818734  0.04276855  0.54805947    -0.05200
C2179       C  0.64997615  0.04856448  0.56212186    -0.23400
C2180       C  0.63404757  0.02402557  0.57064628     0.18800
C2181       C  0.63468648  0.49445569  0.56336753     0.16000
C2182       C  0.65282479  0.48929769  0.54908255    -0.18400
C2183       C  0.61713484  0.46997924  0.57095645    -0.20200
C2184       C  0.60145062  0.47466910  0.58606236    -0.12800
C2185       C  0.60377411  0.00435820  0.59473495     0.03900
C2186       C  0.61803359  0.02927397  0.58571329    -0.24900
H2187       H  0.68151930  0.06175623  0.54206140     0.08900
H2188       H  0.64925683  0.07204632  0.56669024     0.12600
H2189       H  0.65330297  0.46630918  0.54374887     0.12500
H2190       H  0.61631681  0.44701760  0.56551165     0.12200
H2191       H  0.58880347  0.45513400  0.59194449     0.12800
H2192       H  0.61777040  0.05249390  0.59072552     0.14700
C2193       C  0.83041586  0.49778349  0.54435851    -0.05300
C2194       C  0.83516390  0.46779794  0.55017646    -0.05200
C2195       C  0.85314567  0.46322609  0.56469765    -0.23400
C2196       C  0.86654921  0.48864494  0.57367234     0.18800
C2197       C  0.85713182  0.02411629  0.57023822     0.16000
C2198       C  0.83778703  0.02815432  0.55608200    -0.18400
C2199       C  0.86592930  0.04908121  0.58081106    -0.20200
C2200       C  0.88415494  0.04471572  0.59522853    -0.12800
C2201       C  0.89386417  0.01528631  0.59947842     0.03900
C2202       C  0.88286693  0.48444710  0.58896755    -0.24900
H2203       H  0.82388967  0.44797803  0.54382111     0.08900
H2204       H  0.85579290  0.43988152  0.56918414     0.12600
H2205       H  0.82920472  0.05061904  0.55334756     0.12500
H2206       H  0.85848621  0.07196678  0.57802082     0.12200
H2207       H  0.89037414  0.06447137  0.60320190     0.12800
H2208       H  0.88525334  0.46131753  0.59384734     0.14700
C2209       C  0.52554573  0.18174336  0.54464718    -0.05300
C2210       C  0.55108260  0.16392635  0.54737790    -0.05200
C2211       C  0.55173351  0.14387784  0.56131985    -0.23400
C2212       C  0.52680830  0.14145303  0.57268294     0.18800
C2213       C  0.00060289  0.15869139  0.56961017     0.16000
C2214       C  0.00018497  0.17875936  0.55563371    -0.18400
C2215       C  0.97549720  0.15605954  0.58076028    -0.20200
C2216       C  0.97653119  0.13698466  0.59502112    -0.12800
C2217       C  0.00279259  0.12040021  0.59849694     0.03900
C2218       C  0.52781327  0.12252396  0.58718618    -0.24900
H2219       H  0.57081742  0.16619362  0.53896073     0.08900
H2220       H  0.57191931  0.13071797  0.56338624     0.12600
H2221       H  0.98051295  0.19264264  0.55347414     0.12500
H2222       H  0.95519366  0.16899831  0.57855462     0.12200
H2223       H  0.95691558  0.13578952  0.60351856     0.12800
H2224       H  0.54796662  0.10949300  0.58966314     0.14700
C2225       C  0.52237603  0.34027799  0.54429448    -0.05300
C2226       C  0.54660233  0.36292446  0.54667137    -0.05200
C2227       C  0.54616295  0.38328711  0.56036601    -0.23400
C2228       C  0.52137002  0.38132395  0.57182507     0.18800
C2229       C  0.99629170  0.35927992  0.56916925     0.16000
C2230       C  0.99702911  0.33876460  0.55542953    -0.18400
C2231       C  0.97128414  0.35778954  0.58050520    -0.20200
C2232       C  0.97149808  0.37739941  0.59460639    -0.12800
C2233       C  0.49691950  0.39841791  0.59770662     0.03900
C2234       C  0.52155609  0.40059203  0.58609431    -0.24900
H2235       H  0.56624708  0.36422916  0.53817023     0.08900
H2236       H  0.56545376  0.40019072  0.56217188     0.12600
H2237       H  0.97831808  0.32122907  0.55354592     0.12500
H2238       H  0.95179582  0.34116510  0.57860446     0.12200
H2239       H  0.95229065  0.37544170  0.60338927     0.12800
H2240       H  0.54104309  0.41712404  0.58821739     0.14700
C2241       C  0.62256498  0.24135283  0.20064423    -0.05300
C2242       C  0.59528070  0.24043595  0.19084808    -0.05200
C2243       C  0.56649714  0.24354642  0.19856147    -0.23400
C2244       C  0.56458812  0.24772594  0.21621625     0.18800
C2245       C  0.59195324  0.24788621  0.22613909     0.16000
C2246       C  0.62074587  0.24471525  0.21830158    -0.18400
C2247       C  0.59015114  0.25146660  0.24373338    -0.20200
C2248       C  0.56173564  0.25565748  0.25143033    -0.12800
C2249       C  0.53408957  0.25709114  0.24181794     0.03900
C2250       C  0.53591215  0.25201027  0.22406055    -0.24900
H2251       H  0.59635498  0.23784774  0.17718898     0.08900
H2252       H  0.54581864  0.24316657  0.19069275     0.12600
H2253       H  0.64181218  0.24536733  0.22587967     0.12500
H2254       H  0.61081459  0.25123635  0.25158470     0.12200
H2255       H  0.56133081  0.25847590  0.26508713     0.12800
H2256       H  0.51532989  0.25115895  0.21617619     0.14700
C2257       C  0.87369229  0.24463116  0.20537947    -0.05300
C2258       C  0.87563106  0.21909718  0.21627017    -0.05200
C2259       C  0.90045047  0.21753131  0.22770477    -0.23400
C2260       C  0.92435665  0.24103891  0.22807875     0.18800
C2261       C  0.92288884  0.26648835  0.21693332     0.16000
C2262       C  0.89728435  0.26848679  0.20593160    -0.18400
C2263       C  0.94727687  0.28929199  0.21678569    -0.20200
C2264       C  0.97300529  0.28681684  0.22742657    -0.12800
C2265       C  0.97494804  0.26193975  0.23899029     0.03900
C2266       C  0.94973367  0.23934256  0.23930867    -0.24900
H2267       H  0.85773639  0.20044336  0.21603672     0.08900
H2268       H  0.90118782  0.19768296  0.23606668     0.12600
H2269       H  0.89626084  0.28810813  0.19742451     0.12500
H2270       H  0.94665275  0.30895119  0.20828056     0.12200
H2271       H  0.99155130  0.30477751  0.22679869     0.12800
H2272       H  0.94928673  0.22033212  0.24820058     0.14700
C2273       C  0.74233317  0.13414989  0.09864423    -0.05300
C2274       C  0.71255327  0.12710975  0.09187156    -0.05200
C2275       C  0.70860994  0.11029489  0.07682629    -0.23400
C2276       C  0.73438618  0.10004228  0.06831215     0.18800
C2277       C  0.76448003  0.10700084  0.07497981     0.16000
C2278       C  0.76826204  0.12411381  0.09005063    -0.18400
C2279       C  0.79023821  0.09620516  0.06662649    -0.20200
C2280       C  0.78614685  0.07790961  0.05210959    -0.12800
C2281       C  0.75633559  0.07059954  0.04557498     0.03900
C2282       C  0.73054453  0.08222616  0.05351356    -0.24900
H2283       H  0.69220388  0.13461158  0.09822600     0.08900
H2284       H  0.68538046  0.10506930  0.07194008     0.12600
H2285       H  0.79134418  0.12924624  0.09513594     0.12500
H2286       H  0.81345602  0.10124763  0.07156328     0.12200
H2287       H  0.80615389  0.06872399  0.04620053     0.12800
H2288       H  0.70748760  0.07615206  0.04857958     0.14700
C2289       C  0.73524129  0.41456281  0.04540339    -0.05300
C2290       C  0.71020622  0.39261464  0.04718163    -0.05200
C2291       C  0.70901068  0.37218022  0.06096683    -0.23400
C2292       C  0.73285443  0.37346309  0.07317232     0.18800
C2293       C  0.75864170  0.39488981  0.07116948     0.16000
C2294       C  0.75967859  0.41526300  0.05728200    -0.18400
C2295       C  0.78272114  0.39583335  0.08321708    -0.20200
C2296       C  0.78116750  0.37587073  0.09720351    -0.12800
C2297       C  0.75529510  0.35508061  0.09951218     0.03900
C2298       C  0.73121436  0.35391089  0.08742581    -0.24900
H2299       H  0.69124856  0.39184996  0.03810000     0.08900
H2300       H  0.68922077  0.35572435  0.06223234     0.12600
H2301       H  0.77909142  0.43216236  0.05585932     0.12500
H2302       H  0.80266946  0.41206987  0.08185946     0.12200
H2303       H  0.79993440  0.37708094  0.10640845     0.12800
H2304       H  0.71135658  0.33762573  0.08903131     0.14700
C2305       C  0.76186282  0.07317913  0.95646650    -0.05300
C2306       C  0.79127550  0.07818104  0.94914141    -0.05200
C2307       C  0.79511839  0.09590735  0.93429834    -0.23400
C2308       C  0.76943702  0.10833442  0.92639798     0.18800
C2309       C  0.73998271  0.10425543  0.93412724     0.16000
C2310       C  0.73650179  0.08712927  0.94922911    -0.18400
C2311       C  0.71414685  0.11599618  0.92618125    -0.20200
C2312       C  0.71712162  0.13060375  0.91041208    -0.12800
C2313       C  0.74605038  0.13419585  0.90233223     0.03900
C2314       C  0.77236237  0.12361117  0.91059842    -0.24900
H2315       H  0.81095514  0.06723558  0.95451753     0.08900
H2316       H  0.81788658  0.09878564  0.92862009     0.12600
H2317       H  0.71371962  0.08286675  0.95476942     0.12500
H2318       H  0.69144273  0.11315187  0.93194585     0.12200
H2319       H  0.69655075  0.13885629  0.90444557     0.12800
H2320       H  0.79479117  0.12624204  0.90451541     0.14700
C2321       C  0.74545835  0.34533389  0.90613409    -0.05300
C2322       C  0.77446595  0.35975287  0.91046281    -0.05200
C2323       C  0.77747300  0.38015933  0.92411642    -0.23400
C2324       C  0.75153579  0.38642296  0.93376634     0.18800
C2325       C  0.72237075  0.37130995  0.92991564     0.16000
C2326       C  0.71952251  0.35080112  0.91612449    -0.18400
C2327       C  0.69649773  0.37745096  0.93974867    -0.20200
C2328       C  0.69938622  0.39890441  0.95298471    -0.12800
C2329       C  0.72812142  0.41445811  0.95652799     0.03900
C2330       C  0.75419837  0.40791755  0.94703056    -0.24900
H2331       H  0.79485257  0.35570742  0.90307327     0.08900
H2332       H  0.80001602  0.39136378  0.92698033     0.12600
H2333       H  0.69710919  0.33952185  0.91307332     0.12500
H2334       H  0.67400263  0.36599526  0.93705860     0.12200
H2335       H  0.67914439  0.40379264  0.96029823     0.12800
H2336       H  0.77638508  0.41994467  0.94986134     0.14700
C2337       C  0.01608267  0.13769442  0.70217842    -0.05300
C2338       C  0.54160677  0.15939951  0.70082701    -0.05200
C2339       C  0.54248929  0.18724113  0.71001518    -0.23400
C2340       C  0.51803790  0.19370741  0.72088487     0.18800
C2341       C  0.99310952  0.17130173  0.72274257     0.16000
C2342       C  0.99218143  0.14374733  0.71339423    -0.18400
C2343       C  0.96939600  0.17654954  0.73402336    -0.20200
C2344       C  0.96964472  0.20397583  0.74310107    -0.12800
C2345       C  0.49295273  0.22824093  0.74074978     0.03900
C2346       C  0.51789772  0.22196047  0.72990787    -0.24900
H2347       H  0.56046912  0.15522446  0.69232537     0.08900
H2348       H  0.56210618  0.20381111  0.70847824     0.12600
H2349       H  0.97268927  0.12696438  0.71484718     0.12500
H2350       H  0.95063752  0.15914400  0.73603830     0.12200
H2351       H  0.95131042  0.20522867  0.75225101     0.12800
H2352       H  0.53710775  0.23906686  0.72851699     0.14700
C2353       C  0.00168792  0.37880027  0.69895689    -0.05300
C2354       C  0.00391780  0.35192305  0.68928811    -0.05200
C2355       C  0.00173347  0.32280635  0.69713276    -0.23400
C2356       C  0.99758097  0.32031367  0.71477402     0.18800
C2357       C  0.49531260  0.34758252  0.72441484     0.16000
C2358       C  0.49721327  0.37655174  0.71645164    -0.18400
C2359       C  0.49128620  0.34561656  0.74190814    -0.20200
C2360       C  0.49024774  0.31706290  0.74992993    -0.12800
C2361       C  0.49326901  0.28925066  0.74079890     0.03900
C2362       C  0.99597844  0.29123148  0.72295386    -0.24900
H2363       H  0.00718540  0.35352006  0.67567787     0.08900
H2364       H  0.00350411  0.30232957  0.68944671     0.12600
H2365       H  0.49540421  0.39741310  0.72385342     0.12500
H2366       H  0.48938381  0.36623898  0.74947282     0.12200
H2367       H  0.48790347  0.31662178  0.76362023     0.12800
H2368       H  0.99709186  0.27065053  0.71536366     0.14700
C2369       C  0.52255662  0.25973037  0.76287785    -0.05300
C2370       C  0.54667629  0.28346526  0.76132049    -0.05200
C2371       C  0.57329294  0.28397315  0.77133078    -0.23400
C2372       C  0.57810167  0.25981499  0.78251493     0.18800
C2373       C  0.55561906  0.23480019  0.78373401     0.16000
C2374       C  0.52791878  0.23508599  0.77413708    -0.18400
C2375       C  0.56169039  0.20964685  0.79424548    -0.20200
C2376       C  0.58982093  0.20924941  0.80318860    -0.12800
C2377       C  0.61193694  0.23438175  0.80216664     0.03900
C2378       C  0.60569073  0.25981016  0.79199749    -0.24900
H2379       H  0.54606679  0.30183513  0.75208085     0.08900
H2380       H  0.59072803  0.30287481  0.76983646     0.12600
H2381       H  0.51075394  0.21584672  0.77513393     0.12500
H2382       H  0.54492405  0.19010311  0.79535277     0.12200
H2383       H  0.59407831  0.18947385  0.81110306     0.12800
H2384       H  0.62279177  0.27915422  0.79104671     0.14700
C2385       C  0.96175814  0.25933224  0.76108543    -0.05300
C2386       C  0.93438689  0.26125039  0.75120340    -0.05200
C2387       C  0.90540160  0.26210879  0.75861867    -0.23400
C2388       C  0.90256231  0.26098504  0.77622400     0.18800
C2389       C  0.92939720  0.25952394  0.78653354     0.16000
C2390       C  0.95887636  0.25918618  0.77895638    -0.18400
C2391       C  0.92610626  0.25808504  0.80425597    -0.20200
C2392       C  0.89660825  0.25755468  0.81155516    -0.12800
C2393       C  0.87009522  0.25885105  0.80126340     0.03900
C2394       C  0.87315834  0.26084974  0.78364716    -0.24900
H2395       H  0.93559015  0.26170245  0.73746417     0.08900
H2396       H  0.88513133  0.26329989  0.75052484     0.12600
H2397       H  0.97912205  0.25882589  0.78704819     0.12500
H2398       H  0.94624373  0.25686844  0.81243706     0.12200
H2399       H  0.89439238  0.25576893  0.82522542     0.12800
H2400       H  0.85258193  0.26159673  0.77572990     0.14700
C2401       C  0.78754761  0.99955636  0.74251320    -0.05300
C2402       C  0.81254069  0.50062574  0.75206832    -0.05200
C2403       C  0.84178826  0.50341876  0.74455739    -0.23400
C2404       C  0.84466179  0.50348742  0.72687634     0.18800
C2405       C  0.81996828  0.00715521  0.71710108     0.16000
C2406       C  0.79051130  0.00418506  0.72476221    -0.18400
C2407       C  0.82286218  0.01004233  0.69939635    -0.20200
C2408       C  0.85215279  0.01111915  0.69182654    -0.12800
C2409       C  0.87899220  0.00937072  0.70181022     0.03900
C2410       C  0.87413884  0.50466375  0.71923449    -0.24900
H2411       H  0.81139273  0.49964216  0.76579769     0.08900
H2412       H  0.86222045  0.50487614  0.75263205     0.12600
H2413       H  0.77026052  0.00510049  0.71671511     0.12500
H2414       H  0.80246106  0.01085898  0.69137988     0.12200
H2415       H  0.85387631  0.01276736  0.67812953     0.12800
H2416       H  0.89490155  0.50545152  0.72706376     0.14700
C2417       C  0.72757333  0.99188065  0.73927509    -0.05300
C2418       C  0.72110648  0.46547467  0.72711794    -0.05200
C2419       C  0.69612636  0.46369840  0.71558390    -0.23400
C2420       C  0.67394017  0.48598232  0.71568022     0.18800
C2421       C  0.67994527  0.01286361  0.72774817     0.16000
C2422       C  0.70390782  0.01311117  0.73994347    -0.18400
C2423       C  0.65874598  0.03608783  0.72766981    -0.20200
C2424       C  0.63523166  0.03623749  0.71539538    -0.12800
C2425       C  0.63163229  0.01262568  0.70326635     0.03900
C2426       C  0.64950798  0.48546439  0.70360359    -0.24900
H2427       H  0.73807224  0.44819226  0.72641386     0.08900
H2428       H  0.69452587  0.44517387  0.70636346     0.12600
H2429       H  0.70353721  0.03019230  0.74983426     0.12500
H2430       H  0.66061603  0.05446508  0.73698026     0.12200
H2431       H  0.61942037  0.05463438  0.71558543     0.12800
H2432       H  0.64754682  0.46740538  0.69410521     0.14700
C2433       C  0.75469122  0.01988496  0.76482169    -0.05300
C2434       C  0.75398590  0.01539307  0.78264507    -0.05200
C2435       C  0.75139815  0.04015619  0.79377282    -0.23400
C2436       C  0.75050090  0.07036908  0.78757541     0.18800
C2437       C  0.75354394  0.07585169  0.76996793     0.16000
C2438       C  0.75625298  0.05085749  0.75884783    -0.18400
C2439       C  0.75362803  0.10627498  0.76377350    -0.20200
C2440       C  0.75055943  0.13094695  0.77494183    -0.12800
C2441       C  0.74697350  0.12557645  0.79241104     0.03900
C2442       C  0.74713270  0.09525343  0.79870761    -0.24900
H2443       H  0.75587345  0.99296649  0.78835498     0.08900
H2444       H  0.75022818  0.03562512  0.80730565     0.12600
H2445       H  0.75842071  0.05531085  0.74533391     0.12500
H2446       H  0.75613838  0.11099149  0.75031206     0.12200
H2447       H  0.75107566  0.15429473  0.76995847     0.12800
H2448       H  0.74511006  0.09116502  0.81226134     0.14700
C2449       C  0.73133217  0.36832856  0.80169025    -0.05300
C2450       C  0.70476540  0.38553114  0.80170667    -0.05200
C2451       C  0.70303781  0.41174288  0.79134818    -0.23400
C2452       C  0.72769853  0.42104320  0.78060480     0.18800
C2453       C  0.75390775  0.40320528  0.78009722     0.16000
C2454       C  0.75573180  0.37722764  0.79072488    -0.18400
C2455       C  0.77793044  0.41157782  0.76892572    -0.20200
C2456       C  0.77712235  0.43841392  0.75915612    -0.12800
C2457       C  0.75281073  0.45870776  0.76074107     0.03900
C2458       C  0.72700729  0.44820590  0.77069962    -0.24900
H2459       H  0.68553747  0.37916312  0.81001507     0.08900
H2460       H  0.68259155  0.42492212  0.79189626     0.12600
H2461       H  0.77606600  0.36382895  0.79040492     0.12500
H2462       H  0.79761020  0.39743688  0.76780860     0.12200
H2463       H  0.79607288  0.44287872  0.75046428     0.12800
H2464       H  0.70715718  0.46220740  0.77145491     0.14700
C2465       C  0.57518911  0.22436870  0.04598391    -0.05300
C2466       C  0.57658106  0.19557855  0.05404358    -0.05200
C2467       C  0.59480614  0.19257879  0.06862774    -0.23400
C2468       C  0.61150207  0.21848806  0.07548413     0.18800
C2469       C  0.61069745  0.24741202  0.06716348     0.16000
C2470       C  0.59283763  0.25007096  0.05234760    -0.18400
C2471       C  0.62690218  0.27342215  0.07412493    -0.20200
C2472       C  0.64312991  0.27104149  0.08941753    -0.12800
C2473       C  0.64377236  0.24256053  0.09793782     0.03900
C2474       C  0.62826011  0.21619650  0.09074964    -0.24900
H2475       H  0.56284183  0.17565758  0.04929128     0.08900
H2476       H  0.59513550  0.17023232  0.07481025     0.12600
H2477       H  0.59143586  0.27235309  0.04618627     0.12500
H2478       H  0.62658142  0.29573332  0.06790048     0.12200
H2479       H  0.65514197  0.29159917  0.09461950     0.12800
H2480       H  0.62848931  0.19411227  0.09721614     0.14700
C2481       C  0.92099753  0.25428792  0.04403918    -0.05300
C2482       C  0.90767609  0.28246791  0.04686872    -0.06000
C2483       C  0.88918645  0.28621375  0.06116631    -0.23400
C2484       C  0.88397329  0.26182171  0.07280973     0.18800
C2485       C  0.89695509  0.23323296  0.06974256     0.16000
C2486       C  0.91518369  0.22963421  0.05535540    -0.18400
C2487       C  0.89199253  0.20881384  0.08126703    -0.20200
C2488       C  0.87417970  0.21251863  0.09571310    -0.12800
C2489       C  0.86117942  0.24075794  0.09899188     0.03900
C2490       C  0.86624251  0.26546864  0.08750262    -0.24900
H2491       H  0.91237394  0.30175817  0.03829065     0.08900
H2492       H  0.87945514  0.30828929  0.06327918     0.12600
H2493       H  0.92580260  0.20799452  0.05319480     0.12500
H2494       H  0.90190604  0.18683259  0.07911598     0.12200
H2495       H  0.87068135  0.19320575  0.10440128     0.12800
H2496       H  0.85618977  0.28730003  0.08986539     0.14700
C2497       C  0.64402070  0.22700856  0.90660758    -0.05300
C2498       C  0.64763350  0.25415038  0.91631244    -0.05200
C2499       C  0.63267526  0.25631414  0.93182851    -0.23400
C2500       C  0.61332663  0.23156021  0.93774380     0.18800
C2501       C  0.61023905  0.20373802  0.92833186     0.16000
C2502       C  0.62609712  0.20144683  0.91291191    -0.18400
C2503       C  0.59008227  0.17934397  0.93408152    -0.20200
C2504       C  0.57197468  0.18311269  0.94848011    -0.12800
C2505       C  0.57431375  0.21102657  0.95747484     0.03900
C2506       C  0.59568835  0.23481894  0.95240510    -0.24900
H2507       H  0.66167628  0.27401769  0.91174701     0.08900
H2508       H  0.63536280  0.27773507  0.93889006     0.12600
H2509       H  0.62313242  0.18052633  0.90542475     0.12500
H2510       H  0.58733845  0.15790818  0.92704615     0.12200
H2511       H  0.55522755  0.16476315  0.95224276     0.12800
H2512       H  0.59704584  0.25651419  0.95926691     0.14700
C2513       C  0.91964722  0.24592739  0.95530281    -0.05300
C2514       C  0.90761585  0.27494139  0.95290153    -0.05200
C2515       C  0.88825488  0.28024505  0.93902766    -0.23400
C2516       C  0.88066534  0.25655226  0.92735021     0.18800
C2517       C  0.89209579  0.22701201  0.93001110     0.16000
C2518       C  0.91139504  0.22186483  0.94398619    -0.18400
C2519       C  0.88451963  0.20323308  0.91848026    -0.20200
C2520       C  0.86610225  0.20866820  0.90432791    -0.12800
C2521       C  0.85496669  0.23801291  0.90133369     0.03900
C2522       C  0.86218840  0.26191573  0.91297815    -0.24900
H2523       H  0.91394381  0.29370768  0.96153976     0.08900
H2524       H  0.87966903  0.30298614  0.93727359     0.12600
H2525       H  0.92074491  0.19946039  0.94584994     0.12500
H2526       H  0.89300329  0.18046352  0.92033725     0.12200
H2527       H  0.86076919  0.18978394  0.89560950     0.12800
H2528       H  0.85355665  0.28454922  0.91088158     0.14700
C2529       C  0.77436397  0.99111636  0.26351049    -0.05300
C2530       C  0.77457027  0.46664643  0.27530435    -0.05200
C2531       C  0.79963217  0.46478058  0.28665412    -0.23400
C2532       C  0.82475355  0.48698701  0.28622664     0.18800
C2533       C  0.82547886  0.01169817  0.27374383     0.16000
C2534       C  0.80079694  0.01214726  0.26217905    -0.18400
C2535       C  0.84971388  0.03478381  0.27317216    -0.20200
C2536       C  0.87373334  0.03507689  0.28509789    -0.12800
C2537       C  0.87445160  0.01182562  0.29749220     0.03900
C2538       C  0.84945941  0.48652587  0.29803458    -0.24900
H2539       H  0.75529999  0.44951648  0.27617462     0.08900
H2540       H  0.79906549  0.44630043  0.29596639     0.12600
H2541       H  0.80263683  0.02936555  0.25222295     0.12500
H2542       H  0.84978585  0.05298243  0.26369503     0.12200
H2543       H  0.89195805  0.05337761  0.28452894     0.12800
H2544       H  0.84942426  0.46860117  0.30766835     0.14700
C2545       C  0.71432690  0.99604443  0.26105290    -0.05300
C2546       C  0.68734908  0.49911336  0.24980877    -0.05200
C2547       C  0.65827833  0.50251392  0.25670814    -0.23400
C2548       C  0.65469891  0.50333049  0.27427007     0.18800
C2549       C  0.68157760  0.99910810  0.28617055     0.16000
C2550       C  0.71098811  0.99671030  0.27888642    -0.18400
C2551       C  0.67770815  0.99765604  0.30384879    -0.20200
C2552       C  0.64818393  0.99910409  0.31086412    -0.12800
C2553       C  0.62235411  0.00262524  0.30031899     0.03900
C2554       C  0.62518674  0.50547085  0.28125409    -0.24900
H2555       H  0.68919890  0.49818364  0.23610860     0.08900
H2556       H  0.63852090  0.50410424  0.24827488     0.12600
H2557       H  0.73078771  0.99547371  0.28722234     0.12500
H2558       H  0.69736102  0.99487051  0.31220128     0.12200
H2559       H  0.64542302  0.99741022  0.32450781     0.12800
H2560       H  0.60502046  0.50657843  0.27305150     0.14700
C2561       C  0.74832227  0.02396591  0.24144932    -0.05300
C2562       C  0.74889152  0.05172318  0.25096886    -0.05200
C2563       C  0.74917180  0.08048030  0.24319219    -0.23400
C2564       C  0.74844009  0.08269472  0.22556041     0.18800
C2565       C  0.74743378  0.05551915  0.21559207     0.16000
C2566       C  0.74729908  0.02627815  0.22355767    -0.18400
C2567       C  0.74630720  0.05822624  0.19782163    -0.20200
C2568       C  0.74640121  0.08744119  0.19013744    -0.12800
C2569       C  0.74754536  0.11424331  0.20011249     0.03900
C2570       C  0.74854337  0.11179783  0.21777408    -0.24900
H2571       H  0.74904054  0.05095235  0.26472553     0.08900
H2572       H  0.74972009  0.10101627  0.25102431     0.12600
H2573       H  0.74550233  0.00573403  0.21579650     0.12500
H2574       H  0.74547331  0.03782645  0.18988925     0.12200
H2575       H  0.74579819  0.08919183  0.17641417     0.12800
H2576       H  0.74949065  0.13259682  0.22542915     0.14700
C2577       C  0.74327086  0.46310502  0.24030176    -0.05300
C2578       C  0.71987822  0.43930023  0.24352223    -0.05200
C2579       C  0.71794872  0.41179909  0.23442723    -0.23400
C2580       C  0.73991628  0.40621217  0.22214493     0.18800
C2581       C  0.76476122  0.42837723  0.21929775     0.16000
C2582       C  0.76652334  0.45645393  0.22850800    -0.18400
C2583       C  0.78740214  0.42182507  0.20734330    -0.20200
C2584       C  0.78521970  0.39383634  0.19834562    -0.12800
C2585       C  0.76011461  0.37206196  0.20091413     0.03900
C2586       C  0.73756783  0.37848553  0.21288386    -0.24900
H2587       H  0.70293393  0.44114116  0.25342739     0.08900
H2588       H  0.69933405  0.39462518  0.23721127     0.12600
H2589       H  0.78586077  0.47318116  0.22648202     0.12500
H2590       H  0.80676582  0.43832452  0.20493539     0.12200
H2591       H  0.80291488  0.38944626  0.18914706     0.12800
H2592       H  0.71835319  0.36169526  0.21514739     0.14700
C2593       C  0.74552352  0.99315792  0.25163322    -0.02500
N2594       N  0.95173930  0.74230806  0.99988060    -0.36700
N2595       N  0.49856637  0.73411509  0.02638485    -0.57200
N2596       N  0.54307413  0.71946017  0.00092086    -0.36700
N2597       N  0.49533908  0.72416115  0.97446844    -0.57200
C2598       C  0.93377722  0.74234689  0.01387547     0.26900
C2599       C  0.93254262  0.73855069  0.98629932     0.26900
C2600       C  0.55979746  0.71354399  0.01505102     0.26900
C2601       C  0.55826707  0.70869805  0.98743837     0.26900
C2602       C  0.97571878  0.74470344  0.03595397     0.35500
C2603       C  0.52387553  0.73357749  0.03656662     0.35500
C2604       C  0.97224048  0.73233845  0.96400543     0.35500
C2605       C  0.52025386  0.72071546  0.96451088     0.35500
C2606       C  0.90279453  0.73894515  0.00911522    -0.21900
C2607       C  0.90202086  0.73667633  0.99168650    -0.21900
C2608       C  0.58618193  0.69907442  0.01040250    -0.21900
C2609       C  0.58519537  0.69601484  0.99300105    -0.21900
C2610       C  0.98644768  0.75065052  0.05231492    -0.23000
C2611       C  0.51670602  0.74333333  0.05276466    -0.23000
C2612       C  0.98227090  0.73327709  0.94732767    -0.23000
C2613       C  0.51256581  0.72584678  0.94763297    -0.23000
C2614       C  0.94450346  0.74650063  0.03076027    -0.18300
C2615       C  0.94180547  0.73794970  0.96913741    -0.18300
C2616       C  0.54972366  0.71218857  0.97018738    -0.18300
C2617       C  0.55285259  0.72269981  0.03182202    -0.18300
H2618       H  0.88279247  0.73827861  0.01733811     0.14600
H2619       H  0.88134906  0.73381858  0.98387240     0.14600
H2620       H  0.60462603  0.69194242  0.01858825     0.14600
H2621       H  0.60262609  0.68603966  0.98530294     0.14600
H2622       H  0.97359814  0.75873904  0.06299490     0.12800
H2623       H  0.53135234  0.74452072  0.06395385     0.12800
H2624       H  0.96915916  0.73874925  0.93607611     0.12800
H2625       H  0.52722702  0.72439906  0.93661200     0.12800
H2626       H  0.97540484  0.74785516  0.99948523     0.26100
H2627       H  0.52453319  0.73336121  0.00020680     0.26100
C2628       C  0.75342188  0.49093066  0.75161636    -0.02500
C2629       C  0.49209846  0.75765099  0.74988977    -0.02500
N2630       N  0.75023804  0.54147708  0.00071853    -0.36700
N2631       N  0.74384852  0.99350890  0.97429143    -0.57200
N2632       N  0.73191828  0.94541286  0.00000521    -0.36700
N2633       N  0.74276554  0.99193434  0.02633197    -0.57200
C2634       C  0.75907092  0.55822993  0.98686045     0.26900
C2635       C  0.75938719  0.55809417  0.01457610     0.26900
C2636       C  0.73414002  0.92783535  0.98597630     0.26900
C2637       C  0.73575873  0.92686472  0.01363609     0.26900
C2638       C  0.74256512  0.51941992  0.96463233     0.35500
C2639       C  0.73547877  0.96952800  0.96394825     0.35500
C2640       C  0.74267697  0.51924617  0.03658034     0.35500
C2641       C  0.73475134  0.96706644  0.03613008     0.35500
C2642       C  0.77356975  0.58615844  0.99198237    -0.21900
C2643       C  0.77381084  0.58604388  0.00948635    -0.21900
C2644       C  0.73846614  0.89757244  0.99072745    -0.21900
C2645       C  0.73975772  0.89701071  0.00817052    -0.21900
C2646       C  0.73504937  0.51098103  0.94804694    -0.23000
C2647       C  0.73343130  0.97972462  0.94729974    -0.23000
C2648       C  0.73317485  0.51085484  0.05283937    -0.23000
C2649       C  0.72903018  0.97628404  0.05258165    -0.23000
C2650       C  0.75273988  0.54969852  0.96978755    -0.18300
C2651       C  0.75314228  0.54945242  0.03160928    -0.18300
C2652       C  0.73497253  0.93594079  0.03087189    -0.18300
C2653       C  0.73206828  0.93815337  0.96898410    -0.18300
H2654       H  0.78273047  0.60485643  0.98396877     0.14600
H2655       H  0.78314641  0.60461100  0.01752976     0.14600
H2656       H  0.74097774  0.87798634  0.98247834     0.14600
H2657       H  0.74336044  0.87686429  0.01591195     0.14600
H2658       H  0.73485903  0.52567628  0.93691609     0.12800
H2659       H  0.72791790  0.96601471  0.93609611     0.12800
H2660       H  0.73081496  0.52572908  0.06369570     0.12800
H2661       H  0.72251636  0.96179134  0.06336415     0.12800
H2662       H  0.73568990  0.52149503  0.00073162     0.26100
H2663       H  0.72544438  0.96806076  0.00021784     0.26100
C2664       C  0.83236534  0.74102323  0.88709077     0.42400
N2665       N  0.80674800  0.73006086  0.86422328     0.01300
C2666       C  0.70935633  0.82310963  0.81944104    -0.06600
H2667       H  0.68960007  0.81328384  0.88507267     0.06800
C2668       C  0.66495314  0.70197706  0.87847605    -0.06900
Co2669     Co  0.77976403  0.78465526  0.84767021     0.74200
N2670       N  0.72374587  0.79878846  0.86736079    -0.26100
Co2671     Co  0.69946767  0.77443486  0.84800672     0.74100
C2672       C  0.65465423  0.72826156  0.88811438     0.42500
N2673       N  0.73075697  0.67282205  0.86277234     0.00900
N2674       N  0.67840039  0.74498641  0.86579714     0.01000
N2675       N  0.76164510  0.83023706  0.81904022    -0.47000
H2676       H  0.82369715  0.79288381  0.88445522     0.06800
N2677       N  0.75424721  0.80252173  0.86710143     0.01300
N2678       N  0.67559151  0.74884303  0.82884050     0.01000
C2679       C  0.64103718  0.73370394  0.81037154     0.42600
N2680       N  0.76125936  0.67639594  0.86274808    -0.25600
C2681       C  0.82554637  0.77903614  0.81760599    -0.06500
N2682       N  0.82265010  0.71786147  0.87664545    -0.46700
N2683       N  0.65389451  0.75880819  0.81855575    -0.46900
C2684       C  0.84059629  0.75375997  0.80949589     0.42400
N2685       N  0.75241442  0.80806652  0.82995389     0.01300
N2686       N  0.76055150  0.68093489  0.82544621    -0.25600
N2687       N  0.80535013  0.76026169  0.86559102    -0.26100
N2688       N  0.73005458  0.67624205  0.82555358     0.00900
H2689       H  0.79614927  0.66342997  0.80973494     0.06800
H2690       H  0.65126764  0.68273236  0.81426236     0.06900
N2691       N  0.72188828  0.80361958  0.83034885    -0.26100
N2692       N  0.67969969  0.71472366  0.86489901    -0.25700
N2693       N  0.80708646  0.73503842  0.82742246     0.01300
C2694       C  0.74172341  0.82472239  0.89012563     0.42700
C2695       C  0.77212486  0.66144416  0.87632850    -0.07000
N2696       N  0.67759151  0.71860865  0.82791765    -0.25700
H2697       H  0.66263744  0.67759355  0.88147363     0.06800
N2698       N  0.76587023  0.81790806  0.88038760    -0.47000
H2699       H  0.79618630  0.66113794  0.88009627     0.06800
C2700       C  0.74478027  0.65057229  0.80398304     0.42500
C2701       C  0.82105631  0.76946340  0.87975255    -0.06500
Co2702     Co  0.78433308  0.70520570  0.84484664     0.73800
N2703       N  0.71983591  0.65639767  0.87583640    -0.46700
C2704       C  0.73562965  0.84069966  0.81184829     0.42800
N2705       N  0.82840673  0.72729265  0.81650146    -0.46700
Co2706     Co  0.70410033  0.69498723  0.84516931     0.73900
C2707       C  0.65667046  0.70703765  0.81662674    -0.07000
C2708       C  0.71359352  0.81225149  0.88145632    -0.06600
N2709       N  0.80511603  0.76525483  0.82841855    -0.26100
N2710       N  0.66370449  0.75395215  0.87937890    -0.46900
H2711       H  0.68480971  0.82581792  0.81782420     0.06800
C2712       C  0.77184989  0.66562248  0.81233563    -0.07000
Cl2713     Cl  0.74191874  0.73987110  0.84625478    -0.50000
C2714       C  0.74445459  0.64848144  0.88507251     0.42600
H2715       H  0.83167052  0.80359092  0.81699395     0.06800
N2716       N  0.71972235  0.65756657  0.81313050    -0.46700
C2717       C  0.75827278  0.84286391  0.19149732     0.42400
N2718       N  0.76916827  0.80937167  0.17271689     0.01300
C2719       C  0.67024453  0.71432596  0.12316560    -0.06600
H2720       H  0.65838296  0.69013614  0.18615286     0.06800
C2721       C  0.77648280  0.66116430  0.18501401    -0.06900
Co2722     Co  0.71235166  0.78178067  0.15479950     0.74200
N2723       N  0.68715046  0.72526948  0.17331920    -0.26100
Co2724     Co  0.71091962  0.70168884  0.15485522     0.74100
C2725       C  0.74860553  0.64611289  0.19235343     0.42500
N2726       N  0.81597101  0.73161483  0.17345071     0.00900
N2727       N  0.73567210  0.67850168  0.17327641     0.01000
N2728       N  0.67154530  0.76654539  0.12333269    -0.47000
H2729       H  0.70581212  0.83321626  0.18694501     0.06800
N2730       N  0.68761200  0.75577545  0.17339409     0.01300
N2731       N  0.73531340  0.67951976  0.13619703     0.01000
C2732       C  0.74724327  0.65414473  0.11407445     0.42600
N2733       N  0.81690243  0.76211734  0.17304905    -0.25600
C2734       C  0.72716676  0.82198837  0.12262469    -0.06500
N2735       N  0.78177410  0.83046689  0.18325369    -0.46700
N2736       N  0.72323736  0.66383804  0.12308427    -0.46900
C2737       C  0.75518428  0.83416876  0.11407629     0.42400
N2738       N  0.68764642  0.75579092  0.13621219     0.01300
N2739       N  0.81592557  0.76151173  0.13592892    -0.25600
N2740       N  0.73853235  0.80741555  0.17318753    -0.26100
N2741       N  0.81546518  0.73108780  0.13643787     0.00900
H2742       H  0.83830532  0.79549403  0.11914761     0.06800
H2743       H  0.79953793  0.66279266  0.11953602     0.06900
N2744       N  0.68729094  0.72535342  0.13634059    -0.26100
N2745       N  0.76625208  0.68070795  0.17338164    -0.25700
N2746       N  0.76803173  0.80796630  0.13581396     0.01300
C2747       C  0.65353959  0.74144491  0.19218893     0.42700
C2748       C  0.83661466  0.77309772  0.18513092    -0.07000
N2749       N  0.76588868  0.68083707  0.13634814    -0.25700
H2750       H  0.80034255  0.65555431  0.18668370     0.06800
N2751       N  0.66746388  0.76628096  0.18424990    -0.47000
H2752       H  0.84317716  0.79723497  0.18734902     0.06800
C2753       C  0.84376996  0.74345062  0.11493635     0.42500
C2754       C  0.72948380  0.82753879  0.18483264    -0.06500
Co2755     Co  0.79297173  0.78571288  0.15439040     0.73800
N2756       N  0.83423121  0.72082469  0.18537753    -0.46700
C2757       C  0.65992657  0.74169962  0.11448573     0.42800
N2758       N  0.77965585  0.82476258  0.12299889    -0.46700
Co2759     Co  0.79129652  0.70566800  0.15497975     0.73900
C2760       C  0.77561749  0.66523263  0.12290805    -0.07000
C2761       C  0.66614895  0.71419371  0.18465272    -0.06600
N2762       N  0.73742700  0.80620340  0.13596818    -0.26100
N2763       N  0.72417821  0.65751804  0.18419158    -0.46900
H2764       H  0.66589818  0.69016298  0.12008081     0.06800
C2765       C  0.83328357  0.77158160  0.12267239    -0.07000
Cl2766     Cl  0.75184708  0.74374457  0.15486779    -0.50000
C2767       C  0.84794290  0.74566021  0.19336387     0.42600
H2768       H  0.70314402  0.82504394  0.11952551     0.06800
N2769       N  0.83185022  0.71942370  0.12419850    -0.46700
C2770       C  0.00217507  0.91132277  0.69131241     0.42400
N2771       N  0.98964076  0.94535911  0.67302123     0.01300
C2772       C  0.58003099  0.53588436  0.61909340    -0.06600
H2773       H  0.59629984  0.56158314  0.68529978     0.06800
C2774       C  0.98213978  0.59071993  0.68456609    -0.06900
Co2775     Co  0.54482367  0.97246560  0.65424860     0.74200
N2776       N  0.57016836  0.52647187  0.67084984    -0.26100
Co2777     Co  0.54429324  0.54994292  0.65260457     0.74100
C2778       C  0.01085059  0.60723705  0.69037722     0.42500
N2779       N  0.94070590  0.51871618  0.67406943     0.00900
N2780       N  0.52150594  0.57359727  0.67157113     0.01000
N2781       N  0.58004112  0.98538348  0.62171451    -0.47000
H2782       H  0.55398742  0.92004339  0.68534705     0.06800
N2783       N  0.57138982  0.99873044  0.67198740     0.01300
N2784       N  0.51716019  0.57147187  0.63443491     0.01000
C2785       C  0.00074006  0.59526515  0.61247523     0.42600
N2786       N  0.94152913  0.99229886  0.67391369    -0.25600
C2787       C  0.52865315  0.93147344  0.62297869    -0.06500
N2788       N  0.97798001  0.92389680  0.68360164    -0.46700
N2789       N  0.52662192  0.58664287  0.62053460    -0.46900
C2790       C  0.00059463  0.92029115  0.61400890     0.42400
N2791       N  0.56722403  0.99762842  0.63505849     0.01300
N2792       N  0.94007589  0.99303614  0.63658298    -0.25600
N2793       N  0.52029843  0.94727952  0.67302372    -0.26100
N2794       N  0.93815892  0.51912596  0.63697535     0.00900
H2795       H  0.91875076  0.95939516  0.61920149     0.06800
H2796       H  0.94991305  0.58671236  0.62069553     0.06900
N2797       N  0.56590630  0.52589736  0.63345877    -0.26100
N2798       N  0.99096819  0.57067353  0.67287240    -0.25700
N2799       N  0.98814505  0.94635650  0.63585646     0.01300
C2800       C  0.60356535  0.51001854  0.69017439     0.42700
C2801       C  0.92141928  0.98139670  0.68575495    -0.07000
N2802       N  0.98670739  0.56976071  0.63589800    -0.25700
H2803       H  0.95842295  0.59578844  0.68707514     0.06800
N2804       N  0.59182537  0.98824374  0.68291892    -0.47000
H2805       H  0.91353474  0.95739845  0.68736900     0.06800
C2806       C  0.91121349  0.50658816  0.61472437     0.42500
C2807       C  0.53029986  0.92645198  0.68409317    -0.06500
Co2808     Co  0.96431754  0.96875701  0.65485628     0.73800
N2809       N  0.92113905  0.52903435  0.68531695    -0.46700
C2810       C  0.58804652  0.50768139  0.61040832     0.42800
N2811       N  0.97627468  0.93016416  0.62280879    -0.46700
Co2812     Co  0.96379486  0.54493837  0.65514315     0.73900
C2813       C  0.97438826  0.58442253  0.62277718    -0.07000
C2814       C  0.59030312  0.53742318  0.68280312    -0.06600
N2815       N  0.51870510  0.94748986  0.63613909    -0.26100
N2816       N  0.53421345  0.59550338  0.68162486    -0.46900
H2817       H  0.58308082  0.55968200  0.61495592     0.06800
C2818       C  0.92305552  0.98320901  0.62303471    -0.07000
Cl2819     Cl  0.00374098  0.50746485  0.65401580    -0.50000
C2820       C  0.90774733  0.50414844  0.69344408     0.42600
H2821       H  0.55264031  0.92821547  0.62012047     0.06800
N2822       N  0.92239458  0.53062320  0.62423945    -0.46700
C2823       C  0.59049404  0.50608101  0.30608074     0.42400
N2824       N  0.56107193  0.52154737  0.32577056     0.01300
C2825       C  0.96400148  0.93575880  0.38124470    -0.06600
H2826       H  0.93398930  0.92239436  0.31667950     0.06800
C2827       C  0.91546987  0.53909782  0.31741749    -0.06900
Co2828     Co  0.53162182  0.96764519  0.34695236     0.74200
N2829       N  0.97213178  0.94627196  0.32995999    -0.26100
Co2830     Co  0.95232594  0.97339063  0.34840076     0.74100
C2831       C  0.89872691  0.51137951  0.31067359     0.42500
N2832       N  0.98804094  0.57545582  0.32715311     0.00900
N2833       N  0.93012757  0.99906647  0.33006828     0.01000
N2834       N  0.51601456  0.93302196  0.38043637    -0.47000
H2835       H  0.57974741  0.95292611  0.31515002     0.06800
N2836       N  0.50239709  0.94394213  0.32944205     0.01300
N2837       N  0.93414319  0.00064508  0.36694947     0.01000
C2838       C  0.91693972  0.51420985  0.39048417     0.42600
N2839       N  0.51827628  0.57316376  0.32594377    -0.25600
C2840       C  0.57692731  0.98203369  0.37722804    -0.06500
N2841       N  0.58102480  0.53135577  0.31397046    -0.46700
N2842       N  0.91925206  0.99002484  0.38055200    -0.46900
C2843       C  0.59119410  0.51143696  0.38458731     0.42400
N2844       N  0.50553750  0.94730026  0.36681536     0.01300
N2845       N  0.52316563  0.57524997  0.36291701    -0.25600
N2846       N  0.55689339  0.98943306  0.32738512    -0.26100
N2847       N  0.99292556  0.57685718  0.36436276     0.00900
H2848       H  0.56215633  0.59459806  0.37735708     0.06800
H2849       H  0.92780438  0.56580164  0.38442534     0.06900
N2850       N  0.97525184  0.94929044  0.36706024    -0.26100
N2851       N  0.93417443  0.52872622  0.32952895    -0.25700
N2852       N  0.56492809  0.52385207  0.36269920     0.01300
C2853       C  0.98435628  0.91195684  0.31046266     0.42700
C2854       C  0.52878537  0.59052026  0.31278765    -0.07000
N2855       N  0.93942864  0.53061577  0.36662481    -0.25700
H2856       H  0.91257699  0.56312710  0.31446079     0.06800
N2857       N  0.51068378  0.92371819  0.31798911    -0.47000
H2858       H  0.55284303  0.59483577  0.30931815     0.06800
C2859       C  0.01234249  0.60419484  0.38498762     0.42500
C2860       C  0.57527103  0.97713852  0.31596138    -0.06500
Co2861     Co  0.54238511  0.54887272  0.34421358     0.73800
N2862       N  0.97705047  0.59407596  0.31549459    -0.46700
C2863       C  0.99107212  0.92529364  0.39021219     0.42800
N2864       N  0.58283005  0.53554293  0.37508645    -0.46700
Co2865     Co  0.96307222  0.55350070  0.34690904     0.73900
C2866       C  0.92762655  0.54170928  0.38091760    -0.07000
C2867       C  0.95869166  0.92678420  0.31849891    -0.06600
N2868       N  0.56009295  0.99215967  0.36422623    -0.26100
N2869       N  0.90936948  0.98815788  0.31878895    -0.46900
H2870       H  0.93988590  0.93389653  0.38486195     0.06800
C2871       C  0.53738925  0.59203035  0.37524540    -0.07000
Cl2872     Cl  0.99797845  0.51104340  0.34623725    -0.50000
C2873       C  0.00129530  0.60385946  0.30572162     0.42600
H2874       H  0.57833637  0.95815421  0.38099547     0.06800
N2875       N  0.98536513  0.59390874  0.37750704    -0.46700
N2876       N  0.51090133  0.71184060  0.50042016    -0.36700
N2877       N  0.51005759  0.76027751  0.47479711    -0.57200
N2878       N  0.51492444  0.80754654  0.50128356    -0.36700
N2879       N  0.51958660  0.75926656  0.52678471    -0.57200
C2880       C  0.51169055  0.69445045  0.48621755     0.26900
C2881       C  0.51884104  0.69401187  0.51368234     0.26900
C2882       C  0.51948709  0.82569361  0.48739002     0.26900
C2883       C  0.52176358  0.82517257  0.51511346     0.26900
C2884       C  0.50269800  0.73561527  0.46475294     0.35500
C2885       C  0.50724212  0.78570027  0.46504368     0.35500
C2886       C  0.51797855  0.73369764  0.53672034     0.35500
C2887       C  0.51753505  0.78369676  0.53728704     0.35500
C2888       C  0.51959580  0.66491599  0.49054825    -0.21900
C2889       C  0.52414707  0.66464704  0.50787521    -0.21900
C2890       C  0.52876031  0.85546730  0.49248251    -0.21900
C2891       C  0.53000558  0.85518536  0.50996524    -0.21900
C2892       C  0.49528418  0.74546714  0.44853626    -0.23000
C2893       C  0.49834902  0.77710675  0.44869215    -0.23000
C2894       C  0.51557162  0.74201133  0.55363268    -0.23000
C2895       C  0.51521466  0.77357777  0.55398627    -0.23000
C2896       C  0.50487627  0.70428286  0.46950920    -0.18300
C2897       C  0.51980253  0.70293097  0.53096910    -0.18300
C2898       C  0.51970075  0.81517871  0.53225026    -0.18300
C2899       C  0.51415833  0.81658940  0.47029444    -0.18300
H2900       H  0.52191026  0.64556754  0.48210490     0.14600
H2901       H  0.53047317  0.64498885  0.51535222     0.14600
H2902       H  0.53380352  0.87544042  0.48444899     0.14600
H2903       H  0.53632847  0.87487547  0.51794683     0.14600
H2904       H  0.48887071  0.73133812  0.43761023     0.12800
H2905       H  0.49461924  0.79205540  0.43793011     0.12800
H2906       H  0.51428535  0.72693453  0.56462677     0.12800
H2907       H  0.51382541  0.78746803  0.56531397     0.12800
H2908       H  0.50233574  0.73361346  0.50123034     0.26100
H2909       H  0.50469350  0.78524078  0.50143191     0.26100
N2910       N  0.70288403  0.00103859  0.49863436    -0.36700
N2911       N  0.75180256  0.00906858  0.47413240    -0.57200
N2912       N  0.79815439  0.01091884  0.50130215    -0.36700
N2913       N  0.74955914  0.00550220  0.52575207    -0.57200
C2914       C  0.68638725  0.00571953  0.48432408     0.26900
C2915       C  0.68537837  0.00906655  0.51186864     0.26900
C2916       C  0.81573544  0.02210705  0.48828985     0.26900
C2917       C  0.81487864  0.01562669  0.51573083     0.26900
C2918       C  0.72825212  0.00034043  0.46348252     0.35500
C2919       C  0.77796000  0.00951628  0.46485398     0.35500
C2920       C  0.72349682  0.00010213  0.53490575     0.35500
C2921       C  0.77352415  0.00000280  0.53621260     0.35500
C2922       C  0.65773726  0.01610130  0.48846318    -0.21900
C2923       C  0.65717799  0.01844912  0.50589561    -0.21900
C2924       C  0.84416062  0.03392984  0.49450528    -0.21900
C2925       C  0.84369431  0.02960925  0.51186056    -0.21900
C2926       C  0.73948011  0.99513907  0.44736451    -0.23000
C2927       C  0.77095472  0.00127820  0.44818551    -0.23000
C2928       C  0.73091282  0.99140113  0.55132618    -0.23000
C2929       C  0.76261532  0.99103066  0.55210393    -0.23000
C2930       C  0.69658856  0.00049944  0.46767865    -0.18300
C2931       C  0.69351939  0.00631090  0.52917778    -0.18300
C2932       C  0.80508534  0.00607513  0.53209940    -0.18300
C2933       C  0.80780984  0.01926538  0.47091730    -0.18300
H2934       H  0.63937683  0.02182566  0.47981478     0.14600
H2935       H  0.63806344  0.02592227  0.51332351     0.14600
H2936       H  0.86350411  0.04392480  0.48725123     0.14600
H2937       H  0.86243713  0.03592597  0.52060107     0.14600
H2938       H  0.72630295  0.98855860  0.43606810     0.12800
H2939       H  0.78678945  0.00010692  0.43765052     0.12800
H2940       H  0.71519627  0.98635693  0.56175381     0.12800
H2941       H  0.77610275  0.98587675  0.56327103     0.12800
H2942       H  0.72361963  0.99016192  0.49934224     0.26100
H2943       H  0.77758597  0.99732852  0.50020567     0.26100
C2944       C  0.50374951  0.76225991  0.25131317    -0.02500
C2945       C  0.50467210  0.79443660  0.26031224    -0.05300
C2946       C  0.53002434  0.81668503  0.25908039    -0.05200
C2947       C  0.53095256  0.84408062  0.26846014    -0.23400
C2948       C  0.50620730  0.85072017  0.27893277     0.18800
C2949       C  0.97952461  0.83023170  0.27924898     0.16000
C2950       C  0.97865820  0.80278713  0.26972111    -0.18400
C2951       C  0.95434992  0.83722581  0.28938171    -0.20200
C2952       C  0.95577159  0.86404184  0.29927180    -0.12800
C2953       C  0.98249860  0.88426050  0.29938029     0.03900
C2954       C  0.50766396  0.87747876  0.28908695    -0.24900
H2955       H  0.54948261  0.81339596  0.25092042     0.08900
H2956       H  0.55120739  0.86004758  0.26757173     0.12600
H2957       H  0.95823384  0.78696400  0.27026647     0.12500
H2958       H  0.93365823  0.82178044  0.28980458     0.12200
H2959       H  0.93614537  0.86855385  0.30714770     0.12800
H2960       H  0.52831367  0.89303781  0.28897092     0.14700
C2961       C  0.50078880  0.73521787  0.26450446    -0.05300
C2962       C  0.00052130  0.74003004  0.28231244    -0.05200
C2963       C  0.99903542  0.71531480  0.29375250    -0.23400
C2964       C  0.99930685  0.68493704  0.28794471     0.18800
C2965       C  0.50101717  0.67935621  0.27032965     0.16000
C2966       C  0.50158432  0.70428910  0.25882411    -0.18400
C2967       C  0.50271192  0.64891231  0.26455443    -0.20200
C2968       C  0.50296401  0.62436384  0.27615239    -0.12800
C2969       C  0.00088500  0.62979948  0.29362952     0.03900
C2970       C  0.99882560  0.66009490  0.29949350    -0.24900
H2971       H  0.00237681  0.76276085  0.28783757     0.08900
H2972       H  0.99856639  0.72008356  0.30724788     0.12600
H2973       H  0.50299278  0.69975202  0.24532833     0.12500
H2974       H  0.50419821  0.64412873  0.25109887     0.12200
H2975       H  0.50461824  0.60105847  0.27148986     0.12800
H2976       H  0.99751251  0.66431329  0.31303008     0.14700
C2977       C  0.01560276  0.62327113  0.40053384    -0.05300
C2978       C  0.54391690  0.63990374  0.40398786    -0.05200
C2979       C  0.54771164  0.65798536  0.41855664    -0.23400
C2980       C  0.52335053  0.65961594  0.43006999     0.18800
C2981       C  0.99484252  0.64261904  0.42695556     0.16000
C2982       C  0.99107110  0.62466925  0.41211636    -0.18400
C2983       C  0.97060483  0.64423305  0.43866203    -0.20200
C2984       C  0.97426752  0.66330086  0.45295974    -0.12800
C2985       C  0.50220609  0.68088650  0.45575399     0.03900
C2986       C  0.52684486  0.67852952  0.44444783    -0.24900
H2987       H  0.56312732  0.63935393  0.39527127     0.08900
H2988       H  0.56966977  0.67087104  0.42075797     0.12600
H2989       H  0.96925349  0.61168352  0.40964868     0.12500
H2990       H  0.94865962  0.63126433  0.43658146     0.12200
H2991       H  0.95504255  0.66508171  0.46157916     0.12800
H2992       H  0.54835560  0.69225281  0.44661077     0.14700
C2993       C  0.51646876  0.84064078  0.45680745    -0.05300
C2994       C  0.54414080  0.84583116  0.44773120    -0.05200
C2995       C  0.54535564  0.86528059  0.43350628    -0.23400
C2996       C  0.51871992  0.87940778  0.42800142     0.18800
C2997       C  0.99102701  0.87491962  0.43740797     0.16000
C2998       C  0.99016796  0.85577276  0.45185099    -0.18400
C2999       C  0.96431580  0.88868320  0.43183111    -0.20200
C3000       C  0.96463380  0.90564609  0.41671032    -0.12800
C3001       C  0.99171698  0.90937776  0.40690413     0.03900
C3002       C  0.51897680  0.89690114  0.41290907    -0.24900
H3003       H  0.56452981  0.83405468  0.45139349     0.08900
H3004       H  0.56681377  0.86845333  0.42649537     0.12600
H3005       H  0.96873596  0.85145775  0.45879187     0.12500
H3006       H  0.94294236  0.88568407  0.43893669     0.12200
H3007       H  0.94341231  0.91542744  0.41261698     0.12800
H3008       H  0.54006609  0.89982412  0.40554288     0.14700
C3009       C  0.60989723  0.51433063  0.40030154    -0.05300
C3010       C  0.62505498  0.54291523  0.40448128    -0.05200
C3011       C  0.64378661  0.54590258  0.41893654    -0.23400
C3012       C  0.64757370  0.52036254  0.42950212     0.18800
C3013       C  0.63172657  0.49163440  0.42572446     0.16000
C3014       C  0.61408517  0.98864965  0.41118047    -0.18400
C3015       C  0.63430979  0.96797001  0.43759294    -0.20200
C3016       C  0.65425271  0.97114780  0.45161733    -0.12800
C3017       C  0.67346551  0.99816824  0.45372442     0.03900
C3018       C  0.66753095  0.52293559  0.44356042    -0.24900
H3019       H  0.62284134  0.56293106  0.39639768     0.08900
H3020       H  0.65565291  0.56808900  0.42172283     0.12600
H3021       H  0.59966242  0.96753919  0.40937804     0.12500
H3022       H  0.61995646  0.94674318  0.43604628     0.12200
H3023       H  0.65526018  0.95229539  0.46062853     0.12800
H3024       H  0.68027157  0.54472169  0.44629814     0.14700
C3025       C  0.90218638  0.51196220  0.40719600    -0.05300
C3026       C  0.89667790  0.98374842  0.41519577    -0.05200
C3027       C  0.88104868  0.98028537  0.43055241    -0.23400
C3028       C  0.86702995  0.00539387  0.43763104     0.18800
C3029       C  0.87208227  0.53423083  0.42941931     0.16000
C3030       C  0.88990175  0.53780151  0.41466147    -0.18400
C3031       C  0.85753045  0.55934658  0.43627048    -0.20200
C3032       C  0.83718947  0.55474896  0.44988697    -0.12800
C3033       C  0.83221846  0.02566699  0.45817321     0.03900
C3034       C  0.84850692  0.00122250  0.45204448    -0.24900
H3035       H  0.90649577  0.96372525  0.40969682     0.08900
H3036       H  0.87898591  0.95772971  0.43656639     0.12600
H3037       H  0.89272061  0.56022567  0.40854804     0.12500
H3038       H  0.86096120  0.58219696  0.43071115     0.12200
H3039       H  0.82501332  0.57397779  0.45464570     0.12800
H3040       H  0.84505470  0.97854588  0.45784746     0.14700
C3041       C  0.67033211  0.01249179  0.54221328    -0.05300
C3042       C  0.67185846  0.54315959  0.54925531    -0.05200
C3043       C  0.65338051  0.54865122  0.56325929    -0.23400
C3044       C  0.63525637  0.52430243  0.57066909     0.18800
C3045       C  0.63525320  0.99354520  0.56437144     0.16000
C3046       C  0.65314865  0.98801057  0.55004544    -0.18400
C3047       C  0.61968176  0.96897402  0.57298052    -0.20200
C3048       C  0.60421136  0.97432724  0.58806607    -0.12800
C3049       C  0.60257947  0.50400221  0.59369174     0.03900
C3050       C  0.61881341  0.52897198  0.58566713    -0.24900
H3051       H  0.68681806  0.56185709  0.54411819     0.08900
H3052       H  0.65412362  0.57163792  0.56865636     0.12600
H3053       H  0.65510042  0.96461968  0.54552620     0.12500
H3054       H  0.62018578  0.94552436  0.56831660     0.12200
H3055       H  0.59300212  0.95477384  0.59468671     0.12800
H3056       H  0.61985035  0.55164335  0.59146455     0.14700
C3057       C  0.82857083  0.00292484  0.54572929    -0.05300
C3058       C  0.83940271  0.97378016  0.54933332    -0.05200
C3059       C  0.85865349  0.96955695  0.56339459    -0.23400
C3060       C  0.86732057  0.99447758  0.57410153     0.18800
C3061       C  0.86277059  0.51888438  0.56747950     0.16000
C3062       C  0.84479778  0.52325943  0.55284057    -0.18400
C3063       C  0.87605773  0.54431510  0.57639203    -0.20200
C3064       C  0.89204712  0.53998726  0.59158269    -0.12800
C3065       C  0.89525464  0.51015498  0.59817277     0.03900
C3066       C  0.88555517  0.99021532  0.58872764    -0.24900
H3067       H  0.83220948  0.95411344  0.54148717     0.08900
H3068       H  0.86627073  0.94670220  0.56607321     0.12600
H3069       H  0.84082765  0.54642224  0.54845239     0.12500
H3070       H  0.87359112  0.56762009  0.57178712     0.12200
H3071       H  0.90166781  0.56017800  0.59829067     0.12800
H3072       H  0.89309344  0.96746019  0.59173552     0.14700
C3073       C  0.52206839  0.67855645  0.54409355    -0.05300
C3074       C  0.55100112  0.67184513  0.55084333    -0.05200
C3075       C  0.55280151  0.65235280  0.56497207    -0.23400
C3076       C  0.52563143  0.63978707  0.57268150     0.18800
C3077       C  0.99646529  0.64571242  0.56551900     0.16000
C3078       C  0.99490427  0.66479343  0.55116553    -0.18400
C3079       C  0.96929233  0.63352504  0.57323969    -0.20200
C3080       C  0.97085081  0.61662979  0.58829227    -0.12800
C3081       C  0.99962406  0.61142501  0.59589968     0.03900
C3082       C  0.52702742  0.62244180  0.58776796    -0.24900
H3083       H  0.57209195  0.68252859  0.54549859     0.08900
H3084       H  0.57534992  0.64800189  0.57022184     0.12600
H3085       H  0.97258777  0.67027130  0.54598824     0.12500
H3086       H  0.94678223  0.63768576  0.56786350     0.12200
H3087       H  0.94932756  0.60806472  0.59404135     0.12800
H3088       H  0.54932905  0.61837988  0.59343981     0.14700
C3089       C  0.52107600  0.83886615  0.54589085    -0.05300
C3090       C  0.54980853  0.85155260  0.55176751    -0.05200
C3091       C  0.55139967  0.87127036  0.56580549    -0.23400
C3092       C  0.52425777  0.87822106  0.57431297     0.18800
C3093       C  0.99518227  0.86609966  0.56821536     0.16000
C3094       C  0.99378123  0.84662171  0.55396240    -0.18400
C3095       C  0.96810137  0.87298267  0.57677742    -0.20200
C3096       C  0.96984183  0.89101134  0.59150729    -0.12800
C3097       C  0.49866234  0.90249065  0.59794744     0.03900
C3098       C  0.52579164  0.89642147  0.58904925    -0.24900
H3099       H  0.57102306  0.84558706  0.54569298     0.08900
H3100       H  0.57388865  0.88045857  0.57026285     0.12600
H3101       H  0.97161938  0.83659179  0.54947857     0.12500
H3102       H  0.94560129  0.86398869  0.57224554     0.12200
H3103       H  0.94863481  0.89555336  0.59803110     0.12800
H3104       H  0.54822216  0.90538663  0.59365928     0.14700
C3105       C  0.62305904  0.74209622  0.20050272    -0.05300
C3106       C  0.59564064  0.74008041  0.19081398    -0.05200
C3107       C  0.56683079  0.74272623  0.19858478    -0.23400
C3108       C  0.56501902  0.74752251  0.21619270     0.18800
C3109       C  0.59250600  0.74853494  0.22604136     0.16000
C3110       C  0.62133652  0.74584711  0.21814445    -0.18400
C3111       C  0.59077502  0.75253290  0.24361269    -0.20200
C3112       C  0.56233317  0.75656429  0.25132680    -0.12800
C3113       C  0.53459663  0.75744395  0.24174809     0.03900
C3114       C  0.53632619  0.75167844  0.22405257    -0.24900
H3115       H  0.59661612  0.73700957  0.17718420     0.08900
H3116       H  0.54604742  0.74156483  0.19078549     0.12600
H3117       H  0.64248666  0.74716313  0.22565928     0.12500
H3118       H  0.61151873  0.75282925  0.25142463     0.12200
H3119       H  0.56198171  0.75974050  0.26495943     0.12800
H3120       H  0.51565155  0.75021315  0.21623495     0.14700
C3121       C  0.87432754  0.74426307  0.20535101    -0.05300
C3122       C  0.87639237  0.71870961  0.21620939    -0.05200
C3123       C  0.90123446  0.71726923  0.22762440    -0.23400
C3124       C  0.92501153  0.74090730  0.22797950     0.18800
C3125       C  0.92357366  0.76619711  0.21673227     0.16000
C3126       C  0.89795988  0.76806941  0.20575526    -0.18400
C3127       C  0.94791467  0.78905136  0.21653071    -0.20200
C3128       C  0.97356767  0.78678980  0.22724993    -0.12800
C3129       C  0.97542508  0.76210545  0.23893848     0.03900
C3130       C  0.95019667  0.73952814  0.23932865    -0.24900
H3131       H  0.85851263  0.70003772  0.21602728     0.08900
H3132       H  0.90203951  0.69748122  0.23602629     0.12600
H3133       H  0.89687567  0.78763648  0.19721593     0.12500
H3134       H  0.94729983  0.80858311  0.20793572     0.12200
H3135       H  0.99211399  0.80474382  0.22658071     0.12800
H3136       H  0.94950553  0.72079636  0.24839235     0.14700
C3137       C  0.74416151  0.63767745  0.09766317    -0.05300
C3138       C  0.71508885  0.63403913  0.08957670    -0.05200
C3139       C  0.71162074  0.61802660  0.07425588    -0.23400
C3140       C  0.73710909  0.60502974  0.06683292     0.18800
C3141       C  0.76657551  0.60875735  0.07475439     0.16000
C3142       C  0.76995705  0.62527565  0.09004563    -0.18400
C3143       C  0.79193242  0.59511506  0.06749260    -0.20200
C3144       C  0.78784517  0.57697706  0.05290439    -0.12800
C3145       C  0.75852580  0.57272286  0.04522544     0.03900
C3146       C  0.73338060  0.58737773  0.05198022    -0.24900
H3147       H  0.69491667  0.64353881  0.09513271     0.08900
H3148       H  0.68888570  0.61535767  0.06836589     0.12600
H3149       H  0.79248143  0.62777894  0.09617008     0.12500
H3150       H  0.81466501  0.59765970  0.07339048     0.12200
H3151       H  0.80730214  0.56541874  0.04789323     0.12800
H3152       H  0.71066192  0.58363112  0.04615096     0.14700
C3153       C  0.73578659  0.91185762  0.04436190    -0.05300
C3154       C  0.71102938  0.88961323  0.04629485    -0.05200
C3155       C  0.71047923  0.86904719  0.06002873    -0.23400
C3156       C  0.73454747  0.87068557  0.07210775     0.18800
C3157       C  0.76004223  0.89239284  0.06993845     0.16000
C3158       C  0.76059984  0.91263961  0.05600791    -0.18400
C3159       C  0.78418335  0.89396005  0.08195479    -0.20200
C3160       C  0.78286444  0.87450201  0.09615419    -0.12800
C3161       C  0.75722755  0.85351132  0.09865411     0.03900
C3162       C  0.73325324  0.85147606  0.08650159    -0.24900
H3163       H  0.69177888  0.88873911  0.03739982     0.08900
H3164       H  0.69089306  0.85238363  0.06143203     0.12600
H3165       H  0.77979824  0.92974821  0.05447276     0.12500
H3166       H  0.80387923  0.91047009  0.08047683     0.12200
H3167       H  0.80152946  0.87638059  0.10541195     0.12800
H3168       H  0.71358326  0.83501903  0.08826415     0.14700
C3169       C  0.75750458  0.57340964  0.95626586    -0.05300
C3170       C  0.78716987  0.58027711  0.94960442    -0.05200
C3171       C  0.79096890  0.59831622  0.93490794    -0.23400
C3172       C  0.76503203  0.60915002  0.92649899     0.18800
C3173       C  0.73520037  0.60314083  0.93353348     0.16000
C3174       C  0.73170761  0.58575138  0.94852229    -0.18400
C3175       C  0.70918519  0.61335560  0.92504093    -0.20200
C3176       C  0.71249720  0.62842895  0.90941840    -0.12800
C3177       C  0.74189995  0.63388310  0.90205535     0.03900
C3178       C  0.76822981  0.62478291  0.91086513    -0.24900
H3179       H  0.80719924  0.57066514  0.95543413     0.08900
H3180       H  0.81400860  0.60273949  0.92975287     0.12600
H3181       H  0.70877546  0.58011688  0.95360797     0.12500
H3182       H  0.68618204  0.60900480  0.93026681     0.12200
H3183       H  0.69187093  0.63551638  0.90299070     0.12800
H3184       H  0.79101929  0.62891196  0.90535223     0.14700
C3185       C  0.74476103  0.84398159  0.90558040    -0.05300
C3186       C  0.77432439  0.85559416  0.91093466    -0.05200
C3187       C  0.77773589  0.87554514  0.92476935    -0.23400
C3188       C  0.75162933  0.88422597  0.93354297     0.18800
C3189       C  0.72179954  0.87190685  0.92866334     0.16000
C3190       C  0.71856373  0.85173491  0.91474277    -0.18400
C3191       C  0.69570521  0.88055335  0.93757149    -0.20200
C3192       C  0.69910555  0.90175758  0.95089670    -0.12800
C3193       C  0.72858322  0.91450325  0.95546998     0.03900
C3194       C  0.75481508  0.90545318  0.94691399    -0.24900
H3195       H  0.79490722  0.84970306  0.90421176     0.08900
H3196       H  0.80075883  0.88457974  0.92842683     0.12600
H3197       H  0.69567874  0.84267900  0.91087685     0.12500
H3198       H  0.67268754  0.87128145  0.93407597     0.12200
H3199       H  0.67874497  0.90862295  0.95749139     0.12800
H3200       H  0.77755974  0.91534571  0.95054622     0.14700
C3201       C  0.01329562  0.63629949  0.70043245    -0.05300
C3202       C  0.53808477  0.65859684  0.69826612    -0.05200
C3203       C  0.53895843  0.68675076  0.70716179    -0.23400
C3204       C  0.51527511  0.69295836  0.71859097     0.18800
C3205       C  0.99098190  0.67010330  0.72116224     0.16000
C3206       C  0.98998880  0.64224614  0.71205318    -0.18400
C3207       C  0.96808938  0.67514773  0.73298879    -0.20200
C3208       C  0.96860381  0.70270770  0.74197755    -0.12800
C3209       C  0.49137399  0.72728932  0.73905739     0.03900
C3210       C  0.51541351  0.72131991  0.72755131    -0.24900
H3211       H  0.55642317  0.65456896  0.68939542     0.08900
H3212       H  0.55804992  0.70369885  0.70502932     0.12600
H3213       H  0.97103936  0.62505370  0.71408912     0.12500
H3214       H  0.94985757  0.65743870  0.73554800     0.12200
H3215       H  0.95103811  0.70377403  0.75159089     0.12800
H3216       H  0.53426699  0.73865758  0.72568574     0.14700
C3217       C  0.99986117  0.88026601  0.69896579    -0.05300
C3218       C  0.00055220  0.85371155  0.68885829    -0.05200
C3219       C  0.99815783  0.82419379  0.69630139    -0.23400
C3220       C  0.99523231  0.82086284  0.71399200     0.18800
C3221       C  0.49428479  0.84776742  0.72408709     0.16000
C3222       C  0.49649893  0.87717479  0.71653541    -0.18400
C3223       C  0.49125971  0.84499447  0.74162109    -0.20200
C3224       C  0.49007971  0.81604214  0.74923764    -0.12800
C3225       C  0.49210931  0.78854889  0.73967911     0.03900
C3226       C  0.99364872  0.79133541  0.72178994    -0.24900
H3227       H  0.00294411  0.85587160  0.67521333     0.08900
H3228       H  0.99886596  0.80404314  0.68825485     0.12600
H3229       H  0.49579101  0.89771398  0.72431567     0.12500
H3230       H  0.49027096  0.86530259  0.74953675     0.12200
H3231       H  0.48854297  0.81503298  0.76295790     0.12800
H3232       H  0.99391248  0.77104064  0.71389551     0.14700
C3233       C  0.52224950  0.75795638  0.76102199    -0.05300
C3234       C  0.54649262  0.78150134  0.75928765    -0.05200
C3235       C  0.57317475  0.78205131  0.76925586    -0.23400
C3236       C  0.57799596  0.75804420  0.78053937     0.18800
C3237       C  0.55566763  0.73288599  0.78170400     0.16000
C3238       C  0.52786724  0.73313701  0.77214542    -0.18400
C3239       C  0.56189931  0.70778930  0.79223336    -0.20200
C3240       C  0.58985039  0.70778968  0.80140260    -0.12800
C3241       C  0.61166004  0.73325099  0.80059079     0.03900
C3242       C  0.60538995  0.75843101  0.79023719    -0.24900
H3243       H  0.54579798  0.79980952  0.75001326     0.08900
H3244       H  0.59057418  0.80097172  0.76772627     0.12600
H3245       H  0.51070298  0.71390952  0.77320040     0.12500
H3246       H  0.54533662  0.68805802  0.79325120     0.12200
H3247       H  0.59415115  0.68808556  0.80936295     0.12800
H3248       H  0.62228980  0.77795402  0.78936146     0.14700
C3249       C  0.96135812  0.75802559  0.76011351    -0.05300
C3250       C  0.93353407  0.75998540  0.75064197    -0.05200
C3251       C  0.90487185  0.76052857  0.75847651    -0.23400
C3252       C  0.90280542  0.75904979  0.77611663     0.18800
C3253       C  0.93010593  0.75758695  0.78604049     0.16000
C3254       C  0.95926874  0.75755974  0.77803614    -0.18400
C3255       C  0.92757261  0.75583359  0.80380534    -0.20200
C3256       C  0.89837269  0.75498213  0.81151360    -0.12800
C3257       C  0.87137800  0.75627257  0.80159987     0.03900
C3258       C  0.87371442  0.75861208  0.78394844    -0.24900
H3259       H  0.93411358  0.76068035  0.73689125     0.08900
H3260       H  0.88423324  0.76174248  0.75067375     0.12600
H3261       H  0.97988575  0.75717183  0.78583767     0.12500
H3262       H  0.94808163  0.75465877  0.81170511     0.12200
H3263       H  0.89678376  0.75306968  0.82520528     0.12800
H3264       H  0.85280457  0.75947226  0.77631221     0.14700
C3265       C  0.78498163  0.49733242  0.74221296    -0.05300
C3266       C  0.81510757  0.00141254  0.75239014    -0.05200
C3267       C  0.84430790  0.00443047  0.74488270    -0.23400
C3268       C  0.84704451  0.00650620  0.72723222     0.18800
C3269       C  0.81759645  0.50203825  0.71666524     0.16000
C3270       C  0.78806743  0.49964272  0.72432759    -0.18400
C3271       C  0.82058078  0.50238841  0.69890132    -0.20200
C3272       C  0.84995799  0.50342402  0.69139673    -0.12800
C3273       C  0.87689079  0.50428519  0.70147833     0.03900
C3274       C  0.87639125  0.00755078  0.71952934    -0.24900
H3275       H  0.81395162  0.99900220  0.76607179     0.08900
H3276       H  0.86477907  0.00448618  0.75290281     0.12600
H3277       H  0.76788700  0.49911440  0.71616616     0.12500
H3278       H  0.80018486  0.50137092  0.69080258     0.12200
H3279       H  0.85169939  0.50322291  0.67767987     0.12800
H3280       H  0.89715392  0.00649595  0.72726062     0.14700
C3281       C  0.72479814  0.48948665  0.73923453    -0.05300
C3282       C  0.72414295  0.96836683  0.72686072    -0.05200
C3283       C  0.69934240  0.96701308  0.71520357    -0.23400
C3284       C  0.67728035  0.98942367  0.71536546     0.18800
C3285       C  0.67646065  0.50952529  0.72801135     0.16000
C3286       C  0.70088424  0.51044516  0.73996243    -0.18400
C3287       C  0.65475451  0.53228073  0.72805306    -0.20200
C3288       C  0.63132324  0.53227882  0.71571358    -0.12800
C3289       C  0.62836694  0.50901389  0.70335929     0.03900
C3290       C  0.65269305  0.98901060  0.70339046    -0.24900
H3291       H  0.74109484  0.95108724  0.72606819     0.08900
H3292       H  0.69775968  0.94869728  0.70585837     0.12600
H3293       H  0.70072837  0.52784997  0.74969553     0.12500
H3294       H  0.65629952  0.55055284  0.73742911     0.12200
H3295       H  0.61526564  0.55045654  0.71591702     0.12800
H3296       H  0.65038658  0.97084283  0.69396495     0.14700
C3297       C  0.75197526  0.51813128  0.76458391    -0.05300
C3298       C  0.75081221  0.51372571  0.78241871    -0.05200
C3299       C  0.74831289  0.53855326  0.79351225    -0.23400
C3300       C  0.74804555  0.56880451  0.78731131     0.18800
C3301       C  0.75141463  0.57421587  0.76971156     0.16000
C3302       C  0.75378769  0.54909897  0.75858422    -0.18400
C3303       C  0.75224893  0.60470894  0.76355286    -0.20200
C3304       C  0.74962267  0.62948348  0.77473678    -0.12800
C3305       C  0.74570009  0.62419150  0.79220221     0.03900
C3306       C  0.74503749  0.59378420  0.79845154    -0.24900
H3307       H  0.75224850  0.49129242  0.78818921     0.08900
H3308       H  0.74681394  0.53404189  0.80703874     0.12600
H3309       H  0.75615179  0.55347710  0.74507412     0.12500
H3310       H  0.75505267  0.60940753  0.75010659     0.12200
H3311       H  0.75072732  0.65285160  0.76976247     0.12800
H3312       H  0.74270419  0.58968883  0.81198978     0.14700
C3313       C  0.73417074  0.86888460  0.80110659    -0.05300
C3314       C  0.70833921  0.88704480  0.80192293    -0.05200
C3315       C  0.70673083  0.91371486  0.79191900    -0.23400
C3316       C  0.73076600  0.92264163  0.78070305     0.18800
C3317       C  0.75638930  0.90411273  0.77947278     0.16000
C3318       C  0.75812087  0.87757589  0.78976362    -0.18400
C3319       C  0.77981227  0.91233596  0.76787856    -0.20200
C3320       C  0.77900036  0.93957510  0.75840374    -0.12800
C3321       C  0.75528897  0.96037285  0.76065445     0.03900
C3322       C  0.72997167  0.95007282  0.77100337    -0.24900
H3323       H  0.68952419  0.88096835  0.81055569     0.08900
H3324       H  0.68680105  0.92749540  0.79307399     0.12600
H3325       H  0.77791144  0.86352472  0.78883000     0.12500
H3326       H  0.79901148  0.89775576  0.76618862     0.12200
H3327       H  0.79740657  0.94394739  0.74935105     0.12800
H3328       H  0.71048330  0.96443996  0.77224047     0.14700
C3329       C  0.57687094  0.72073414  0.04540037    -0.05300
C3330       C  0.58445980  0.69195132  0.05189259    -0.05200
C3331       C  0.60364319  0.69027488  0.06621632    -0.23400
C3332       C  0.61468140  0.71736551  0.07459215     0.18800
C3333       C  0.60744134  0.74641845  0.06799623     0.16000
C3334       C  0.58934113  0.74790993  0.05319156    -0.18400
C3335       C  0.61749833  0.77346328  0.07664585    -0.20200
C3336       C  0.63445721  0.77179621  0.09175892    -0.12800
C3337       C  0.64195062  0.74309502  0.09843225     0.03900
C3338       C  0.63212405  0.71590211  0.08967471    -0.24900
H3339       H  0.57481963  0.67079481  0.04613122     0.08900
H3340       H  0.60893903  0.66779212  0.07108839     0.12600
H3341       H  0.58327412  0.77015132  0.04828124     0.12500
H3342       H  0.61189104  0.79590283  0.07184388     0.12200
H3343       H  0.64168165  0.79304474  0.09825445     0.12800
H3344       H  0.63761249  0.69356834  0.09464584     0.14700
C3345       C  0.92156818  0.75056665  0.04431767    -0.05300
C3346       C  0.91010448  0.77956997  0.04734971    -0.06000
C3347       C  0.89216142  0.78421836  0.06174765    -0.23400
C3348       C  0.88572867  0.75992119  0.07330194     0.18800
C3349       C  0.89678959  0.73051670  0.06999490     0.16000
C3350       C  0.91436760  0.72600117  0.05547877    -0.18400
C3351       C  0.89070367  0.70619803  0.08144019    -0.20200
C3352       C  0.87368207  0.71081011  0.09605600    -0.12800
C3353       C  0.86250615  0.73983335  0.09955849     0.03900
C3354       C  0.86870130  0.76445135  0.08814940    -0.24900
H3355       H  0.91590022  0.79876553  0.03886801     0.08900
H3356       H  0.88389701  0.80690070  0.06403149     0.12600
H3357       H  0.92358332  0.70371721  0.05314974     0.12500
H3358       H  0.89915103  0.68360039  0.07910589     0.12200
H3359       H  0.86927829  0.69152351  0.10467219     0.12800
H3360       H  0.86008865  0.78689160  0.09069758     0.14700
C3361       C  0.63935322  0.72896388  0.90481251    -0.05300
C3362       C  0.63641951  0.75763345  0.91274102    -0.05200
C3363       C  0.62054486  0.75951500  0.92799400    -0.23400
C3364       C  0.60700625  0.73276955  0.93555223     0.18800
C3365       C  0.61036403  0.70362768  0.92796978     0.16000
C3366       C  0.62684954  0.70186285  0.91268976    -0.18400
C3367       C  0.59612750  0.67698571  0.93548364    -0.20200
C3368       C  0.57753519  0.67943281  0.94984864    -0.12800
C3369       C  0.57351719  0.70843512  0.95703576     0.03900
C3370       C  0.58900006  0.73489727  0.95015814    -0.24900
H3371       H  0.64610938  0.77883296  0.90702696     0.08900
H3372       H  0.61821170  0.78199034  0.93365499     0.12600
H3373       H  0.62899128  0.67965326  0.90669703     0.12500
H3374       H  0.59842300  0.65445900  0.92989342     0.12200
H3375       H  0.56539991  0.65891569  0.95501136     0.12800
H3376       H  0.58547709  0.75731219  0.95564227     0.14700
C3377       C  0.91837474  0.74330842  0.95571339    -0.05300
C3378       C  0.90967850  0.77336878  0.95232012    -0.05200
C3379       C  0.89016769  0.77912225  0.93855233    -0.23400
C3380       C  0.87907156  0.75483612  0.92796585     0.18800
C3381       C  0.88705030  0.72435231  0.93169743     0.16000
C3382       C  0.90657272  0.71878379  0.94554448    -0.18400
C3383       C  0.87597778  0.69998957  0.92128286    -0.20200
C3384       C  0.85785581  0.70574725  0.90704909    -0.12800
C3385       C  0.85040210  0.73599095  0.90284418     0.03900
C3386       C  0.86071744  0.76049495  0.91354525    -0.24900
H3387       H  0.91872885  0.79249040  0.96007750     0.08900
H3388       H  0.88426878  0.80261261  0.93599142     0.12600
H3389       H  0.91334516  0.69557408  0.94817087     0.12500
H3390       H  0.88168645  0.67648863  0.92400382     0.12200
H3391       H  0.84998645  0.68635618  0.89916507     0.12800
H3392       H  0.85496824  0.78386467  0.91054099     0.14700
C3393       C  0.77381894  0.49081420  0.26324525    -0.05300
C3394       C  0.77588487  0.96687946  0.27545434    -0.05200
C3395       C  0.80109557  0.96558316  0.28670910    -0.23400
C3396       C  0.82573301  0.98827961  0.28618657     0.18800
C3397       C  0.82504203  0.51042489  0.27376696     0.16000
C3398       C  0.80061456  0.51132272  0.26206076    -0.18400
C3399       C  0.84954374  0.53318342  0.27331260    -0.20200
C3400       C  0.87328995  0.53323670  0.28536585    -0.12800
C3401       C  0.87357609  0.51004678  0.29780784     0.03900
C3402       C  0.85057548  0.98814603  0.29785237    -0.24900
H3403       H  0.75702786  0.94929378  0.27634627     0.08900
H3404       H  0.80106184  0.94709296  0.29600161     0.12600
H3405       H  0.80290767  0.52852415  0.25210960     0.12500
H3406       H  0.85000353  0.55140183  0.26383903     0.12200
H3407       H  0.89165257  0.55140253  0.28487179     0.12800
H3408       H  0.85091097  0.97019420  0.30745704     0.14700
C3409       C  0.71397381  0.49650057  0.26020030    -0.05300
C3410       C  0.68758703  0.99976854  0.25089987    -0.05200
C3411       C  0.65877043  0.00332953  0.25803971    -0.23400
C3412       C  0.65539463  0.00260978  0.27561270     0.18800
C3413       C  0.68092382  0.50157883  0.28501757     0.16000
C3414       C  0.71042997  0.49870581  0.27795754    -0.18400
C3415       C  0.67704788  0.50240238  0.30268323    -0.20200
C3416       C  0.64747362  0.50418047  0.30954891    -0.12800
C3417       C  0.62151969  0.50548686  0.29885222     0.03900
C3418       C  0.62605192  0.00479284  0.28276345    -0.24900
H3419       H  0.68914915  0.99973956  0.23717603     0.08900
H3420       H  0.63899170  0.00606530  0.24976272     0.12600
H3421       H  0.73024394  0.49850633  0.28637290     0.12500
H3422       H  0.69676310  0.50116744  0.31116998     0.12200
H3423       H  0.64473869  0.50424234  0.32321593     0.12800
H3424       H  0.60596834  0.00749620  0.27468516     0.14700
C3425       C  0.74870715  0.52433473  0.24104406    -0.05300
C3426       C  0.74940923  0.55196090  0.25069361    -0.05200
C3427       C  0.74964422  0.58086166  0.24306402    -0.23400
C3428       C  0.74896763  0.58339381  0.22544333     0.18800
C3429       C  0.74844232  0.55640917  0.21534017     0.16000
C3430       C  0.74806971  0.52701741  0.22315640    -0.18400
C3431       C  0.74784020  0.55942752  0.19757731    -0.20200
C3432       C  0.74751528  0.58872842  0.19003519    -0.12800
C3433       C  0.74764397  0.61531907  0.20013936     0.03900
C3434       C  0.74854631  0.61260052  0.21779699    -0.24900
H3435       H  0.74946397  0.55097836  0.26444467     0.08900
H3436       H  0.75001355  0.60125274  0.25100376     0.12600
H3437       H  0.74621333  0.50667743  0.21525148     0.12500
H3438       H  0.74764344  0.53919300  0.18953961     0.12200
H3439       H  0.74731735  0.59071354  0.17631756     0.12800
H3440       H  0.74900056  0.63325671  0.22555449     0.14700
C3441       C  0.74345587  0.96291572  0.24079799    -0.05300
C3442       C  0.71909803  0.93975252  0.24322116    -0.05200
C3443       C  0.71724139  0.91243280  0.23396644    -0.23400
C3444       C  0.74028356  0.90624897  0.22242075     0.18800
C3445       C  0.76607404  0.92763577  0.22045485     0.16000
C3446       C  0.76754633  0.95576796  0.22962260    -0.18400
C3447       C  0.78988204  0.92026157  0.20939735    -0.20200
C3448       C  0.78772705  0.89240555  0.20025944    -0.12800
C3449       C  0.76149016  0.87162856  0.20175672     0.03900
C3450       C  0.73797327  0.87871390  0.21299492    -0.24900
H3451       H  0.70122538  0.94188642  0.25257485     0.08900
H3452       H  0.69782682  0.89581882  0.23607789     0.12600
H3453       H  0.78738624  0.97209461  0.22811978     0.12500
H3454       H  0.81009619  0.93604851  0.20776502     0.12200
H3455       H  0.80630043  0.88742985  0.19172676     0.12800
H3456       H  0.71792048  0.86264079  0.21451750     0.14700
loop_ 
_geom_bond_atom_site_label_1 
_geom_bond_atom_site_label_2 
_geom_bond_distance 
_geom_bond_site_symmetry_2 
_ccdc_geom_bond_type 
C1          C849   1.564       .  S
C1         C1665   1.561       .  S
C1         C1681   1.554       .  S
C1         C1697   1.556       .  S
N2            C7   1.352       .  A
N2            C6   1.353   1_556  A
N2           H34   1.038       .  S
N3           C11   1.352   1_655  A
N3         C1738   1.351       .  A
N4            C9   1.351   1_554  A
N4            C8   1.353       .  A
N4           H35   1.036       .  S
N5           C13   1.352   1_655  A
N5         C1740   1.353       .  A
C6           C14   1.387       .  A
C6           C22   1.414       .  A
C7           C23   1.413       .  A
C7           C15   1.387       .  A
C8           C16   1.387       .  A
C8           C25   1.416       .  A
C9           C24   1.413       .  A
C9           C17   1.387       .  A
C10        N1731   1.351       .  A
C10          C22   1.413       .  A
C10          C18   1.386       .  A
C11          C25   1.415       .  A
C11          C19   1.387       .  A
C12        N1733   1.353       .  A
C12          C20   1.386       .  A
C12          C23   1.415       .  A
C13          C21   1.387       .  A
C13          C24   1.415       .  A
C14          C15   1.377   1_554  A
C14          H26   1.082       .  S
C15          H27   1.082       .  S
C16          C17   1.377   1_554  A
C16          H28   1.082       .  S
C17          H29   1.082       .  S
C18        C1747   1.369       .  A
C18          H30   1.082       .  S
C19        C1746   1.369   1_455  A
C19          H31   1.082       .  S
C20        C1749   1.369       .  A
C20          H32   1.082       .  S
C21        C1748   1.369   1_455  A
C21          H33   1.082       .  S
C22         C753   1.482       .  S
C23         C785   1.485       .  S
C24         C777   1.479       .  S
C25         C737   1.484       .  S
C36         C673   1.561       .  S
C36         C689   1.568       .  S
C36         C705   1.565   1_565  S
C36        C1593   1.569       .  S
C37         C617   1.569       .  S
C37         C633   1.555       .  S
C37         C641   1.563   1_655  S
C37        C2385   1.557       .  S
N38          C43   1.353       .  A
N38          C42   1.354   1_554  A
N38          H70   1.037       .  S
N39          C47   1.353       .  A
N39         C910   1.353       .  A
N40          C45   1.354       .  A
N40          C44   1.352   1_554  A
N40          H71   1.039       .  S
N41          C49   1.351       .  A
N41         C912   1.351       .  A
C42          C50   1.387       .  A
C42          C58   1.417       .  A
C43          C59   1.418       .  A
C43          C51   1.388       .  A
C44          C52   1.387       .  A
C44          C61   1.413       .  A
C45          C60   1.415       .  A
C45          C53   1.387       .  A
C46         N903   1.353   1_545  A
C46          C58   1.418       .  A
C46          C54   1.388       .  A
C47          C61   1.414       .  A
C47          C55   1.385       .  A
C48         N905   1.352   1_545  A
C48          C56   1.388       .  A
C48          C59   1.416       .  A
C49          C57   1.386       .  A
C49          C60   1.412       .  A
C50          C51   1.378   1_556  A
C50          H62   1.082       .  S
C51          H63   1.082       .  S
C52          C53   1.375   1_556  A
C52          H64   1.082       .  S
C53          H65   1.082       .  S
C54         C919   1.370   1_545  A
C54          H66   1.082       .  S
C55         C918   1.370       .  A
C55          H67   1.082       .  S
C56         C921   1.368   1_545  A
C56          H68   1.082       .  S
C57         C920   1.370       .  A
C57          H69   1.082       .  S
C58         C577   1.487       .  S
C59         C553   1.484       .  S
C60         C561   1.486       .  S
C61         C601   1.483       .  S
C72          N90   1.344       .  A
C72         C109   1.468       .  S
C72         C793   1.479       .  S
N73          N90   1.319       .  A
N73          N95   1.319       .  A
N73        Co110   2.066       .  S
C74          N99   1.338       .  A
C74         H119   1.081       .  S
C74         C112   1.456       .  S
H75         C116   1.081       .  S
C76         N100   1.346       .  A
C76         H105   1.081       .  S
C76          C80   1.464       .  S
Co77         N95   2.103       .  S
Co77         N85   2.075       .  S
Co77        N117   2.085       .  S
Co77         N93   2.115       .  S
Co77       Cl121   2.461       .  S
N78         C116   1.344       .  A
N78          N85   1.318       .  A
N78         Co79   2.092       .  S
Co79         N82   2.063       .  S
Co79         N99   2.071       .  S
Co79         N86   2.094       .  S
Co79       Cl121   2.442       .  S
C80         N118   1.343       .  A
C80         C769   1.471       .  S
N81          N88   1.318       .  A
N81         N111   1.322       .  A
N81        Co114   2.076       .  S
N82         N100   1.319       .  A
N82         N118   1.318       .  A
N83         C112   1.358       .  A
N83          N93   1.329       .  A
H84         C109   1.081       .  S
N85         N106   1.323       .  A
N86         N104   1.321       .  A
N86          N91   1.325       .  A
C87          N91   1.351       .  A
C87         C115   1.460       .  S
C87         C649   1.477       .  S
N88         C103   1.347       .  A
N88        Co110   2.097       .  S
C89         N117   1.341       .  A
C89         H123   1.082       .  S
C89          C92   1.461       .  S
C92         N113   1.349       .  A
C92         C665   1.466       .  S
N93          N99   1.321       .  A
N94         C120   1.339       .  A
N94          N96   1.320       .  A
N94        Co110   2.079       .  S
N95         C109   1.348       .  A
N96         N124   1.329       .  A
N96        Co114   2.107       .  S
H97         C120   1.082       .  S
H98         C115   1.081       .  S
N100       Co114   2.095       .  S
N101        N113   1.323       .  A
N101        N117   1.320       .  A
N101       Co110   2.085       .  S
C102        N106   1.349       .  A
C102        C116   1.464       .  S
C102        C593   1.479       .  S
C103        H107   1.081       .  S
C103        C122   1.465       .  S
N104        C115   1.340       .  A
N104       Co114   2.083       .  S
C108        N124   1.355       .  A
C108        C120   1.455       .  S
C108        C713   1.474       .  S
Co110      Cl121   2.443       .  S
N111        C122   1.348       .  A
C112        C721   1.483       .  S
Co114      Cl121   2.464       .  S
C122        C585   1.482       .  S
C125        N143   1.350       .  A
C125        C162   1.467       .  S
C125        C857   1.486       .  S
N126        N143   1.326       .  A
N126        N148   1.322       .  A
N126       Co163   2.089       .  S
C127        N152   1.342       .  A
C127        H172   1.081       .  S
C127        C165   1.461       .  S
H128        C169   1.082       .  S
C129        N153   1.339       .  A
C129        H158   1.082       .  S
C129        C133   1.457       .  S
Co130       N148   2.105       .  S
Co130       N138   2.098       .  S
Co130       N170   2.087       .  S
Co130       N146   2.090       .  S
Co130      Cl174   2.445       .  S
N131        C169   1.343       .  A
N131        N138   1.321       .  A
N131       Co132   2.092       .  S
Co132       N135   2.087       .  S
Co132       N152   2.081       .  S
Co132       N139   2.084       .  S
Co132      Cl174   2.461       .  S
C133        N171   1.350       .  A
C133        C841   1.465       .  S
N134        N141   1.321       .  A
N134        N164   1.326       .  A
N134       Co167   2.094       .  S
N135        N153   1.320       .  A
N135        N171   1.324       .  A
N136        C165   1.351       .  A
N136        N146   1.324       .  A
H137        C162   1.082       .  S
N138        N159   1.326       .  A
N139        N157   1.319       .  A
N139        N144   1.324       .  A
C140        N144   1.350       .  A
C140        C168   1.464       .  S
C140        C545   1.481       .  S
N141        C156   1.342       .  A
N141       Co163   2.093       .  S
C142        N170   1.341       .  A
C142        H176   1.081       .  S
C142        C145   1.459       .  S
C145        N166   1.349       .  A
C145        C569   1.474       .  S
N146        N152   1.319       .  A
N147        C173   1.344       .  A
N147        N149   1.319       .  A
N147       Co163   2.087       .  S
N148        C162   1.345       .  A
N149        N177   1.322       .  A
N149       Co167   2.079       .  S
H150        C173   1.081       .  S
H151        C168   1.081       .  S
N153       Co167   2.080       .  S
N154        N166   1.325       .  A
N154        N170   1.320       .  A
N154       Co163   2.080       .  S
C155        N159   1.352       .  A
C155        C169   1.463       .  S
C155        C513   1.476       .  S
C156        H160   1.081       .  S
C156        C175   1.463       .  S
N157        C168   1.343       .  A
N157       Co167   2.091       .  S
C161        N177   1.348       .  A
C161        C173   1.463       .  S
C161        C761   1.477       .  S
Co163      Cl174   2.463       .  S
N164        C175   1.352       .  A
C165        C745   1.479       .  S
Co167      Cl174   2.448       .  S
C175        C529   1.482       .  S
C178        N196   1.349       .  A
C178        C625   1.464       .  S
C178       C1943   1.458       .  S
N179        N196   1.323       .  A
N179       N1929   1.321       .  A
N179       Co216   2.087       .  S
C180        N205   1.346       .  A
C180        H225   1.081       .  S
C180        C218   1.466       .  S
H181        C222   1.082       .  S
C182        N206   1.342       .  A
C182        H211   1.082       .  S
C182        C186   1.465       .  S
Co183       N201   2.082       .  S
Co183       N191   2.093       .  S
Co183       N223   2.076       .  S
Co183       N199   2.070       .  S
Co183     Cl2819   2.450       .  S
N184        C222   1.344       .  A
N184       N1055   1.323   1_545  A
N184       Co185   2.108       .  S
Co185       N188   2.099       .  S
Co185       N205   2.094       .  S
Co185       N192   2.100       .  S
Co185     Cl1955   2.461       .  S
C186       N1952   1.353       .  A
C186        C609   1.488       .  S
N187        N217   1.325       .  A
N187       N1058   1.320   1_545  A
N187       Co220   2.082       .  S
N188        N224   1.328       .  A
N188       N1934   1.322   1_455  A
N189       C1082   1.345       .  A
N189        N199   1.321       .  A
H190        C215   1.082       .  S
N191        N212   1.329       .  A
N191       N1048   1.323       .  A
N192        N197   1.328       .  A
N192       N1938   1.319   1_455  A
C193       N1925   1.355       .  A
C193        C221   1.452       .  S
C193        C489   1.477       .  S
N194        C209   1.344       .  A
N194       N1051   1.321       .  A
N194       Co216   2.105       .  S
C195        N223   1.337       .  A
C195        H229   1.081       .  S
C195       C1926   1.453   1_455  S
N197       C1921   1.355       .  A
C198        N219   1.354       .  A
C198       C1923   1.453       .  S
C198       C2233   1.478       .  S
N199       N1069   1.318       .  A
N200        C226   1.346       .  A
N200       N1066   1.319       .  A
N200       Co216   2.087       .  S
N201        C215   1.340       .  A
N201       N1907   1.321   1_455  A
N202        N230   1.323       .  A
N202       N1064   1.319   1_545  A
N202       Co220   2.087       .  S
H203        C226   1.081       .  S
H204        C221   1.081       .  S
N205       N1063   1.319   1_545  A
N206       N1916   1.322       .  A
N206       Co220   2.097       .  S
N207        N219   1.329       .  A
N207       N1951   1.319       .  A
N207       Co216   2.098       .  S
C208       N1076   1.352   1_545  A
C208        C222   1.465       .  S
C208        C697   1.489       .  S
C209        H213   1.082       .  S
C209       C1092   1.466       .  S
N210        C221   1.335       .  A
N210       N1920   1.319       .  A
N210       Co220   2.068       .  S
N212       C1072   1.351       .  A
C214        N230   1.349       .  A
C214        C473   1.485       .  S
C214       C1090   1.467   1_545  S
C215       C1906   1.458       .  S
Co216     Cl1091   2.462       .  S
N217        C228   1.351       .  A
C218       N1053   1.344   1_545  A
C218        C457   1.475       .  S
Co220      Cl227   2.448       .  S
N223       N1935   1.319   1_455  A
N224       C1914   1.353       .  A
C226       C1078   1.465       .  S
Cl227     Co2775   2.453   1_545  S
Cl227     Co1913   2.461       .  S
Cl227     Co1080   2.458   1_545  S
C228        C681   1.475       .  S
C228       C1073   1.465   1_545  S
C231        N249   1.349       .  A
C231        C825   1.462       .  S
C231       C1132   1.459   1_545  S
N232        N249   1.323       .  A
N232       N1118   1.320   1_545  A
N232       Co269   2.079       .  S
C233        N258   1.339       .  A
C233        H278   1.081       .  S
C233        C271   1.459       .  S
H234        C275   1.081       .  S
C235        N259   1.341       .  A
C235        H264   1.082       .  S
C235        C239   1.462       .  S
Co236       N254   2.084       .  S
Co236       N244   2.096       .  S
Co236       N276   2.080       .  S
Co236       N252   2.091       .  S
Co236     Cl2872   2.452   1_455  S
N237        C275   1.341       .  A
N237       N1972   1.320       .  A
N237       Co238   2.085       .  S
Co238       N241   2.085       .  S
Co238       N258   2.080       .  S
Co238       N245   2.069       .  S
Co238     Cl1144   2.451       .  S
C239       N1141   1.350   1_545  A
C239        C809   1.477       .  S
N240        N270   1.326       .  A
N240       N1975   1.321       .  A
N240       Co273   2.089       .  S
N241        N277   1.327       .  A
N241       N1123   1.322       .  A
N242       C1999   1.353   1_455  A
N242        N252   1.327       .  A
H243        C268   1.082       .  S
N244        N265   1.327       .  A
N244       N1965   1.320   1_455  A
N245        N250   1.319       .  A
N245       N1127   1.319       .  A
C246       N1114   1.345   1_545  A
C246        C274   1.461       .  S
C246        C433   1.469       .  S
N247        C262   1.344       .  A
N247       N1968   1.321   1_455  A
N247       Co269   2.092       .  S
C248        N276   1.340       .  A
C248        H282   1.081       .  S
C248       C1115   1.459       .  S
N250       C1110   1.344       .  A
C251        N272   1.348       .  A
C251        C417   1.472       .  S
C251       C1112   1.459   1_545  S
N252       N1986   1.318   1_455  A
N253        C279   1.335       .  A
N253       N1983   1.319   1_455  A
N253       Co269   2.078       .  S
N254        C268   1.338       .  A
N254       N1096   1.319       .  A
N255        N283   1.330       .  A
N255       N1981   1.319       .  A
N255       Co273   2.101       .  S
H256        C279   1.080       .  S
H257        C274   1.081       .  S
N258       N1980   1.318       .  A
N259       N1105   1.323   1_545  A
N259       Co273   2.097       .  S
N260        N272   1.323       .  A
N260       N1140   1.319   1_545  A
N260       Co269   2.083       .  S
C261       N1993   1.353       .  A
C261        C275   1.463       .  S
C261        C361   1.483       .  S
C262        H266   1.081       .  S
C262       C2009   1.461       .  S
N263        C274   1.343       .  A
N263       N1109   1.319       .  A
N263       Co273   2.082       .  S
N265       C1989   1.353   1_455  A
C267        N283   1.356       .  A
C267        C385   1.486       .  S
C267       C2007   1.458       .  S
C268       C1095   1.460       .  S
Co269     Cl2008   2.446   1_455  S
N270        C281   1.349       .  A
C271       N1970   1.353       .  A
C271        C409   1.481       .  S
Co273      Cl280   2.459       .  S
N276       N1124   1.320       .  A
N277       C1103   1.350       .  A
C279       C1995   1.458       .  S
Cl280     Co2828   2.454   1_545  S
Cl280     Co1102   2.450   1_545  S
Cl280     Co1997   2.446       .  S
C281        C377   1.474       .  S
C281       C1990   1.461       .  S
N284        C289   1.351       .  A
N284        C288   1.354       .  A
N284        H316   1.039       .  S
N285        C292   1.350       .  A
N285        C293   1.351       .  A
N286        C291   1.353       .  A
N286        C290   1.352       .  A
N286        H317   1.040       .  S
N287        C294   1.351       .  A
N287        C295   1.351       .  A
C288        C296   1.387       .  A
C288        C304   1.415       .  A
C289        C305   1.413       .  A
C289        C297   1.387       .  A
C290        C298   1.386       .  A
C290        C307   1.413       .  A
C291        C306   1.414       .  A
C291        C299   1.387       .  A
C292        C304   1.413       .  A
C292        C300   1.387       .  A
C293        C307   1.412       .  A
C293        C301   1.386       .  A
C294        C302   1.387       .  A
C294        C305   1.413       .  A
C295        C303   1.386       .  A
C295        C306   1.412       .  A
C296        C297   1.379       .  A
C296        H308   1.082   1_455  S
C297        H309   1.082   1_455  S
C298        C299   1.378       .  A
C298        H310   1.082       .  S
C299        H311   1.082       .  S
C300        C301   1.372       .  A
C300        H312   1.082       .  S
C301        H313   1.082       .  S
C302        C303   1.372       .  A
C302        H314   1.082       .  S
C303        H315   1.082       .  S
C304        C393   1.484       .  S
C305        C481   1.480       .  S
C306        C497   1.484       .  S
C307        C401   1.482       .  S
N318        C323   1.352       .  A
N318        C322   1.352       .  A
N318        H350   1.037       .  S
N319        C326   1.352       .  A
N319        C327   1.350       .  A
N320        C325   1.352       .  A
N320        C324   1.349       .  A
N320        H351   1.035       .  S
N321        C328   1.349       .  A
N321        C329   1.352       .  A
C322        C330   1.386       .  A
C322        C338   1.412       .  A
C323        C339   1.414       .  A
C323        C331   1.388       .  A
C324        C332   1.389       .  A
C324        C341   1.414       .  A
C325        C340   1.414       .  A
C325        C333   1.386       .  A
C326        C338   1.414       .  A
C326        C334   1.387       .  A
C327        C341   1.416       .  A
C327        C335   1.388       .  A
C328        C336   1.386       .  A
C328        C339   1.413       .  A
C329        C337   1.387       .  A
C329        C340   1.415       .  A
C330        C331   1.376       .  A
C330        H342   1.082       .  S
C331        H343   1.082       .  S
C332        C333   1.377       .  A
C332        H344   1.083       .  S
C333        H345   1.082       .  S
C334        C335   1.370       .  A
C334        H346   1.082       .  S
C335        H347   1.082       .  S
C336        C337   1.370       .  A
C336        H348   1.082       .  S
C337        H349   1.082       .  S
C338        C425   1.481       .  S
C339        C449   1.477       .  S
C340        C465   1.486       .  S
C341        C441   1.473       .  S
C352        C353   1.565       .  S
C352        C369   1.566       .  S
C352        C521   1.562       .  S
C352       C2265   1.560   1_455  S
C353        C354   1.417       .  A
C353       C2086   1.417   1_455  A
C354        C355   1.398       .  A
C354        H363   1.078       .  S
C355        C356   1.399       .  A
C355        H364   1.084       .  S
C356        C362   1.408       .  A
C356       C2085   1.411   1_455  A
C357        C359   1.402       .  A
C357        C358   1.407       .  A
C357       C2084   1.411       .  A
C358       C2081   1.417       .  A
C358        H365   1.084       .  S
C359        C360   1.399       .  A
C359        H366   1.084       .  S
C360        C361   1.406       .  A
C360        H367   1.082       .  S
C361       C2090   1.406       .  A
C362       C2089   1.406   1_455  A
C362        H368   1.084       .  S
C369        C374   1.419       .  A
C369       C2098   1.419   1_455  A
C370        C371   1.397       .  A
C370       C2097   1.419       .  A
C370        H379   1.076       .  S
C371        C372   1.397       .  A
C371        H380   1.084       .  S
C372        C378   1.407       .  A
C372       C2101   1.412       .  A
C373        C375   1.404       .  A
C373        C374   1.408       .  A
C373       C2100   1.412   1_455  A
C374        H381   1.084       .  S
C375        C376   1.401       .  A
C375        H382   1.083       .  S
C376       C2105   1.402       .  A
C376        H383   1.083       .  S
C377        C378   1.403       .  A
C377       C2104   1.402       .  A
C378        H384   1.085       .  S
C385        C390   1.408       .  A
C385       C2114   1.408       .  A
C386        C387   1.393       .  A
C386       C2113   1.408       .  A
C386        H395   1.081       .  S
C387        C388   1.397       .  A
C387        H396   1.084       .  S
C388        C394   1.403       .  A
C388       C2117   1.416   1_455  A
C389        C391   1.404       .  A
C389        C390   1.411       .  A
C389       C2116   1.416       .  A
C390        H397   1.084       .  S
C391        C392   1.401       .  A
C391        H398   1.083       .  S
C392       C2121   1.404       .  A
C392        H399   1.083       .  S
C393        C394   1.400       .  A
C393       C2120   1.404   1_455  A
C394        H400   1.084       .  S
C401        C402   1.402       .  A
C401       C2134   1.401   1_455  A
C402        C403   1.400       .  A
C402        H411   1.083       .  S
C403        C404   1.405       .  A
C403        H412   1.084       .  S
C404        C410   1.407       .  A
C404       C2133   1.415   1_455  A
C405        C407   1.400       .  A
C405        C406   1.403       .  A
C405       C2132   1.415       .  A
C406       C2129   1.401       .  A
C406        H413   1.085       .  S
C407        C408   1.396       .  A
C407        H414   1.084       .  S
C408        C409   1.406       .  A
C408        H415   1.082       .  S
C409       C2138   1.407       .  A
C410       C2137   1.407   1_455  A
C410        H416   1.084       .  S
C417        C418   1.404       .  A
C417       C1286   1.405   1_545  A
C418        C419   1.394       .  A
C418        H427   1.083       .  S
C419        C420   1.400       .  A
C419        H428   1.084       .  S
C420        C426   1.399       .  A
C420        C421   1.415   1_545  A
C421       C1287   1.404       .  A
C421       C1286   1.403       .  A
C422       C1281   1.407       .  A
C422       C1285   1.404       .  A
C422        H429   1.083       .  S
C423        C424   1.399       .  A
C423       C1285   1.404       .  A
C423        H430   1.084       .  S
C424        C425   1.403       .  A
C424        H431   1.083       .  S
C425       C1290   1.401       .  A
C426       C1289   1.401   1_545  A
C426        H432   1.085       .  S
C433        C438   1.403       .  A
C433       C1298   1.405   1_545  A
C434        C435   1.390       .  A
C434       C1297   1.404       .  A
C434        H443   1.083       .  S
C435        C436   1.398       .  A
C435        H444   1.084       .  S
C436        C442   1.395       .  A
C436       C1301   1.416       .  A
C437        C439   1.403       .  A
C437        C438   1.402       .  A
C437       C1300   1.416       .  A
C438        H445   1.084       .  S
C439        C440   1.397       .  A
C439        H446   1.084       .  S
C440       C1305   1.402       .  A
C440        H447   1.083       .  S
C441        C442   1.397       .  A
C441       C1304   1.401       .  A
C442        H448   1.085       .  S
C449        C454   1.400       .  A
C449       C1314   1.402       .  A
C450        C451   1.395       .  A
C450       C1313   1.402       .  A
C450        H459   1.083       .  S
C451        C452   1.402       .  A
C451        H460   1.083       .  S
C452        C458   1.404       .  A
C452       C1317   1.417   1_545  A
C453        C455   1.399       .  A
C453        C454   1.402       .  A
C453       C1316   1.417       .  A
C454        H461   1.085       .  S
C455        C456   1.395       .  A
C455        H462   1.084       .  S
C456       C1321   1.407       .  A
C456        H463   1.083       .  S
C457        C458   1.403       .  A
C457       C1320   1.407   1_545  A
C458        H464   1.083       .  S
C465        C466   1.404       .  A
C465       C1334   1.402       .  A
C466        C467   1.399       .  A
C466        H475   1.083       .  S
C467        C468   1.403       .  A
C467        H476   1.083       .  S
C468        C474   1.409       .  A
C468       C1333   1.416       .  A
C469        C471   1.400       .  A
C469        C470   1.406       .  A
C469       C1332   1.416   1_545  A
C470       C1329   1.403       .  A
C470        H477   1.084       .  S
C471        C472   1.397       .  A
C471        H478   1.084       .  S
C472        C473   1.407       .  A
C472        H479   1.083       .  S
C473       C1338   1.407   1_545  A
C474       C1337   1.407       .  A
C474        H480   1.083       .  S
C481        C482   1.402       .  A
C481       C2214   1.401       .  A
C482        C483   1.399       .  A
C482        H491   1.083       .  S
C483        C484   1.404       .  A
C483        H492   1.083       .  S
C484        C490   1.406       .  A
C484       C2213   1.416       .  A
C485        C487   1.399       .  A
C485        C486   1.401       .  A
C485       C2212   1.416       .  A
C486       C2209   1.401       .  A
C486        H493   1.085       .  S
C487        C488   1.394       .  A
C487        H494   1.084       .  S
C488        C489   1.407       .  A
C488        H495   1.082       .  S
C489       C2218   1.404       .  A
C490       C2217   1.404       .  A
C490        H496   1.084       .  S
C497        C498   1.402       .  A
C497       C2230   1.405   1_455  A
C498        C499   1.397       .  A
C498        H507   1.083       .  S
C499        C500   1.404       .  A
C499        H508   1.084       .  S
C500        C506   1.402       .  A
C500       C2229   1.414   1_455  A
C501        C503   1.404       .  A
C501        C502   1.405       .  A
C501       C2228   1.414       .  A
C502       C2225   1.405       .  A
C502        H509   1.084       .  S
C503        C504   1.401       .  A
C503        H510   1.083       .  S
C504       C2233   1.403       .  A
C504        H511   1.083       .  S
C505        C506   1.406   1_655  A
C505       C2232   1.403       .  A
C505       C1926   1.478       .  S
C506        H512   1.083       .  S
C513        C514   1.404       .  A
C513        C518   1.402       .  A
C514        C515   1.402       .  A
C514        H523   1.083       .  S
C515        C516   1.406       .  A
C515        H524   1.084       .  S
C516        C522   1.412       .  A
C516        C517   1.413       .  A
C517        C519   1.398       .  A
C517        C518   1.408       .  A
C518        H525   1.084       .  S
C519        C520   1.396       .  A
C519        H526   1.083       .  S
C520        C521   1.415       .  A
C520        H527   1.083       .  S
C521        C522   1.420       .  A
C522        H528   1.080       .  S
C529        C530   1.404       .  A
C529        C534   1.406       .  A
C530        C531   1.401       .  A
C530        H539   1.083       .  S
C531        C532   1.405       .  A
C531        H540   1.084       .  S
C532        C538   1.410       .  A
C532        C533   1.412       .  A
C533        C535   1.399       .  A
C533        C534   1.408       .  A
C534        H541   1.084       .  S
C535        C536   1.397       .  A
C535        H542   1.084       .  S
C536        C537   1.415       .  A
C536        H543   1.083       .  S
C537       C2080   1.560       .  S
C537        C538   1.419       .  A
C538        H544   1.079       .  S
C545        C546   1.406       .  A
C545        C550   1.406       .  A
C546        C547   1.397       .  A
C546        H555   1.083       .  S
C547        C548   1.401       .  A
C547        H556   1.084       .  S
C548        C554   1.404       .  A
C548        C549   1.415       .  A
C549        C551   1.403       .  A
C549        C550   1.405       .  A
C550        H557   1.083       .  S
C551        C552   1.398       .  A
C551        H558   1.083       .  S
C552        C553   1.402       .  A
C552        H559   1.083       .  S
C553        C554   1.404       .  A
C554        H560   1.084       .  S
C561        C562   1.402       .  A
C561        C566   1.405       .  A
C562        C563   1.398       .  A
C562        H571   1.083       .  S
C563        C564   1.403       .  A
C563        H572   1.084       .  S
C564        C570   1.403       .  A
C564        C565   1.414       .  A
C565        C567   1.402       .  A
C565        C566   1.402       .  A
C566        H573   1.085       .  S
C567        C568   1.397       .  A
C567        H574   1.084       .  S
C568        C569   1.404       .  A
C568        H575   1.083       .  S
C569        C570   1.404       .  A
C570        H576   1.084       .  S
C577        C578   1.404       .  A
C577        C582   1.402       .  A
C578        C579   1.401       .  A
C578        H587   1.083       .  S
C579        C580   1.405       .  A
C579        H588   1.083       .  S
C580        C586   1.410       .  A
C580        C581   1.415       .  A
C581        C583   1.399       .  A
C581        C582   1.403       .  A
C582        H589   1.085       .  S
C583        C584   1.395       .  A
C583        H590   1.084       .  S
C584        C585   1.406       .  A
C584        H591   1.083       .  S
C585        C586   1.408       .  A
C586        H592   1.084       .  S
C593        C594   1.406       .  A
C593        C598   1.407       .  A
C594        C595   1.395       .  A
C594        H603   1.083       .  S
C595        C596   1.400       .  A
C595        H604   1.084       .  S
C596        C602   1.402       .  A
C596        C597   1.415       .  A
C597        C599   1.404       .  A
C597        C598   1.406       .  A
C598        H605   1.083       .  S
C599        C600   1.399       .  A
C599        H606   1.084       .  S
C600        C601   1.402       .  A
C600        H607   1.083       .  S
C601        C602   1.401       .  A
C602        H608   1.084       .  S
C609        C614   1.401       .  A
C609       C2338   1.408       .  A
C610        C611   1.408       .  A
C610       C2337   1.408       .  A
C610        H619   1.083       .  S
C611        C612   1.407       .  A
C611        H620   1.083       .  S
C612        C618   1.419       .  A
C612       C2341   1.412   1_455  A
C613        C615   1.391       .  A
C613        C614   1.404       .  A
C613       C2340   1.412       .  A
C614        H621   1.084       .  S
C615        C616   1.389       .  A
C615        H622   1.084       .  S
C616       C2345   1.422       .  A
C616        H623   1.079       .  S
C617        C618   1.420   1_655  A
C617       C2344   1.422       .  A
C618        H624   1.084       .  S
C625        C626   1.403       .  A
C625       C2358   1.394       .  A
C626        C627   1.401       .  A
C626        H635   1.083       .  S
C627        C628   1.405       .  A
C627        H636   1.083       .  S
C628        C634   1.412       .  A
C628       C2357   1.416       .  A
C629        C631   1.391       .  A
C629        C630   1.400       .  A
C629       C2356   1.416       .  A
C630       C2353   1.394   1_655  A
C630        H637   1.085       .  S
C631        C632   1.386       .  A
C631        H638   1.084       .  S
C632        C633   1.420       .  A
C632        H639   1.083       .  S
C633       C2362   1.413       .  A
C634       C2361   1.413       .  A
C634        H640   1.080       .  S
C641        C642   1.423       .  A
C641        C646   1.415       .  A
C642        C643   1.389       .  A
C642        H651   1.078       .  S
C643        C644   1.391       .  A
C643        H652   1.084       .  S
C644        C650   1.403       .  A
C644        C645   1.413       .  A
C645        C647   1.404       .  A
C645        C646   1.412       .  A
C646        H653   1.084       .  S
C647        C648   1.402       .  A
C647        H654   1.083       .  S
C648        C649   1.406       .  A
C648        H655   1.083       .  S
C649        C650   1.399       .  A
C650        H656   1.085       .  S
C657       C1765   1.557       .  S
C657        C658   1.418       .  A
C657        C662   1.413       .  A
C658        C659   1.388       .  A
C658        H667   1.083       .  S
C659        C660   1.393       .  A
C659        H668   1.084       .  S
C660        C666   1.402       .  A
C660        C661   1.416       .  A
C661        C663   1.404       .  A
C661        C662   1.411       .  A
C662        H669   1.080       .  S
C663        C664   1.401       .  A
C663        H670   1.083       .  S
C664        C665   1.403       .  A
C664        H671   1.083       .  S
C665        C666   1.396       .  A
C666        H672   1.085       .  S
C673        C678   1.417   1_565  A
C673       C1538   1.417   1_565  A
C674        C675   1.397       .  A
C674       C1537   1.417       .  A
C674        H683   1.083       .  S
C675        C676   1.398       .  A
C675        H684   1.084       .  S
C676        C682   1.411       .  A
C676       C1541   1.413       .  A
C677        C679   1.405       .  A
C677        C678   1.411       .  A
C677       C1540   1.414       .  A
C678        H685   1.080       .  S
C679        C680   1.401       .  A
C679        H686   1.083       .  S
C680        C681   1.403       .  A
C680        H687   1.083       .  S
C681       C1546   1.402       .  A
C682       C1545   1.404       .  A
C682        H688   1.084       .  S
C689        C694   1.420   1_565  A
C689       C1554   1.415       .  A
C690        C691   1.405       .  A
C690       C1553   1.416       .  A
C690        H699   1.083       .  S
C691        C692   1.404       .  A
C691        H700   1.083       .  S
C692        C698   1.416       .  A
C692       C1557   1.410       .  A
C693        C695   1.404       .  A
C693        C694   1.407       .  A
C693       C1556   1.410   1_545  A
C694        H701   1.078       .  S
C695        C696   1.398       .  A
C695        H702   1.084       .  S
C696        C697   1.403       .  A
C696        H703   1.083       .  S
C697       C1562   1.412   1_545  A
C698       C1561   1.413       .  A
C698        H704   1.084       .  S
C705        C706   1.416       .  A
C705        C710   1.419       .  A
C706        C707   1.399       .  A
C706        H715   1.077   1_545  S
C707        C708   1.399       .  A
C707        H716   1.084       .  S
C708        C714   1.408       .  A
C708        C709   1.411       .  A
C709        C711   1.404       .  A
C709        C710   1.407       .  A
C710        H717   1.084       .  S
C711        C712   1.401       .  A
C711        H718   1.084       .  S
C712        C713   1.402       .  A
C712        H719   1.083       .  S
C713        C714   1.404       .  A
C714        H720   1.084       .  S
C721        C722   1.408       .  A
C721        C726   1.402       .  A
C722        C723   1.402       .  A
C722        H731   1.082       .  S
C723        C724   1.403       .  A
C723        H732   1.084       .  S
C724        C730   1.412       .  A
C724        C725   1.412       .  A
C725        C727   1.395       .  A
C725        C726   1.407       .  A
C726        H733   1.084       .  S
C727        C728   1.395       .  A
C727        H734   1.084       .  S
C728        C729   1.419       .  A
C728        H735   1.078       .  S
C729        C900   1.567       .  S
C729        C730   1.418       .  A
C730        H736   1.084       .  S
C737        C738   1.403       .  A
C737        C742   1.402       .  A
C738        C739   1.399       .  A
C738        H747   1.083       .  S
C739        C740   1.404       .  A
C739        H748   1.084       .  S
C740        C746   1.406       .  A
C740        C741   1.415       .  A
C741        C743   1.401       .  A
C741        C742   1.403       .  A
C742        H749   1.084       .  S
C743        C744   1.396       .  A
C743        H750   1.084       .  S
C744        C745   1.405       .  A
C744        H751   1.083       .  S
C745        C746   1.407       .  A
C746        H752   1.083       .  S
C753        C754   1.402       .  A
C753        C758   1.400       .  A
C754        C755   1.401       .  A
C754        H763   1.083       .  S
C755        C756   1.405       .  A
C755        H764   1.083       .  S
C756        C762   1.407       .  A
C756        C757   1.415       .  A
C757        C759   1.399       .  A
C757        C758   1.399       .  A
C758        H765   1.085       .  S
C759        C760   1.393       .  A
C759        H766   1.084       .  S
C760        C761   1.405       .  A
C760        H767   1.083       .  S
C761        C762   1.407       .  A
C762        H768   1.083       .  S
C769        C770   1.405       .  A
C769        C774   1.403       .  A
C770        C771   1.392       .  A
C770        H779   1.084       .  S
C771        C772   1.399       .  A
C771        H780   1.084       .  S
C772        C778   1.400       .  A
C772        C773   1.417       .  A
C773        C775   1.403       .  A
C773        C774   1.405       .  A
C774        H781   1.084       .  S
C775        C776   1.398       .  A
C775        H782   1.083       .  S
C776        C777   1.402       .  A
C776        H783   1.083       .  S
C777        C778   1.399       .  A
C778        H784   1.085       .  S
C785        C786   1.403       .  A
C785        C790   1.402       .  A
C786        C787   1.399       .  A
C786        H795   1.083       .  S
C787        C788   1.403       .  A
C787        H796   1.083       .  S
C788        C794   1.408       .  A
C788        C789   1.416       .  A
C789        C791   1.398       .  A
C789        C790   1.402       .  A
C790        H797   1.085       .  S
C791        C792   1.393       .  A
C791        H798   1.084       .  S
C792        C793   1.407       .  A
C792        H799   1.083       .  S
C793        C794   1.405       .  A
C794        H800   1.083       .  S
C801        C865   1.560       .  S
C801        C806   1.420   1_565  A
C801       C1666   1.412       .  A
C802        C803   1.406       .  A
C802       C1665   1.413       .  A
C802        H811   1.083       .  S
C803        C804   1.405       .  A
C803        H812   1.083       .  S
C804        C810   1.412       .  A
C804       C1669   1.409       .  A
C805        C807   1.403       .  A
C805        C806   1.399       .  A
C805       C1668   1.409   1_545  A
C806        H813   1.080       .  S
C807        C808   1.395       .  A
C807        H814   1.084       .  S
C808        C809   1.402       .  A
C808        H815   1.083       .  S
C809       C1674   1.409   1_545  A
C810       C1673   1.412       .  A
C810        H816   1.084       .  S
C817        C865   1.555       .  S
C817        C822   1.413       .  A
C817       C1682   1.418       .  A
C818        C819   1.389       .  A
C818       C1681   1.418       .  A
C818        H827   1.083       .  S
C819        C820   1.393       .  A
C819        H828   1.084       .  S
C820        C826   1.401       .  A
C820       C1685   1.416       .  A
C821        C823   1.404       .  A
C821        C822   1.408       .  A
C821       C1684   1.415   1_565  A
C822        H829   1.079       .  S
C823        C824   1.399       .  A
C823        H830   1.083       .  S
C824        C825   1.403   1_565  A
C824        H831   1.083       .  S
C825       C1690   1.395       .  A
C826       C1689   1.396       .  A
C826        H832   1.085       .  S
C833        C865   1.554   1_545  S
C833        C834   1.419       .  A
C833        C838   1.413       .  A
C834        C835   1.386       .  A
C834        H843   1.084       .  S
C835        C836   1.391       .  A
C835        H844   1.084       .  S
C836        C842   1.401       .  A
C836        C837   1.416       .  A
C837        C839   1.404       .  A
C837        C838   1.412       .  A
C838        H845   1.081       .  S
C839        C840   1.402       .  A
C839        H846   1.083       .  S
C840        C841   1.403       .  A
C840        H847   1.083       .  S
C841        C842   1.395       .  A
C842        H848   1.085       .  S
C849        C850   1.422       .  A
C849        C854   1.417       .  A
C850        C851   1.391       .  A
C850        H859   1.080       .  S
C851        C852   1.392       .  A
C851        H860   1.084       .  S
C852        C858   1.406       .  A
C852        C853   1.414       .  A
C853        C855   1.405       .  A
C853        C854   1.417       .  A
C854        H861   1.084       .  S
C855        C856   1.405       .  A
C855        H862   1.083       .  S
C856        C857   1.408       .  A
C856        H863   1.083       .  S
C857        C858   1.401       .  A
C858        H864   1.084       .  S
C865       C1713   1.565       .  S
N866        C871   1.353       .  A
N866        C870   1.352   1_556  A
N866        H898   1.037       .  S
N867       C2602   1.351       .  A
N867        C875   1.353   1_655  A
N868        C873   1.352   1_554  A
N868        C872   1.355       .  A
N868        H899   1.034       .  S
N869       C2604   1.354       .  A
N869        C877   1.352   1_655  A
C870        C878   1.387       .  A
C870        C886   1.414       .  A
C871        C887   1.413       .  A
C871        C879   1.386       .  A
C872        C880   1.388       .  A
C872        C889   1.420       .  A
C873        C888   1.415       .  A
C873        C881   1.386       .  A
C874       N2595   1.351       .  A
C874        C886   1.414       .  A
C874        C882   1.386       .  A
C875        C889   1.419       .  A
C875        C883   1.388       .  A
C876       N2597   1.354       .  A
C876        C884   1.385       .  A
C876        C887   1.415       .  A
C877        C885   1.388       .  A
C877        C888   1.418       .  A
C878        C879   1.376   1_554  A
C878        H890   1.082       .  S
C879        H891   1.082       .  S
C880        C881   1.377   1_554  A
C880        H892   1.082       .  S
C881        H893   1.082       .  S
C882       C2611   1.366       .  A
C882        H894   1.082       .  S
C883       C2610   1.366   1_455  A
C883        H895   1.081       .  S
C884       C2613   1.369       .  A
C884        H896   1.082       .  S
C885       C2612   1.369   1_455  A
C885        H897   1.082       .  S
C886       C1617   1.480       .  S
C887       C1649   1.487       .  S
C888       C1641   1.481       .  S
C889       C1601   1.491       .  S
C900       C1537   1.565       .  S
C900       C1553   1.569       .  S
C900       C1569   1.567       .  S
C901       C1481   1.570       .  S
C901       C1497   1.560       .  S
C901       C1505   1.565   1_655  S
C901       C3249   1.559       .  S
N902        C907   1.353       .  A
N902        C906   1.352   1_554  A
N902        H934   1.038       .  S
N903        C911   1.353       .  A
N904        C909   1.354       .  A
N904        C908   1.352   1_554  A
N904        H935   1.038       .  S
N905        C913   1.352       .  A
C906        C914   1.388       .  A
C906        C922   1.416       .  A
C907        C923   1.414       .  A
C907        C915   1.386       .  A
C908        C916   1.387       .  A
C908        C925   1.413       .  A
C909        C924   1.416       .  A
C909        C917   1.387       .  A
C910        C922   1.418       .  A
C910        C918   1.388       .  A
C911        C925   1.414       .  A
C911        C919   1.386       .  A
C912        C920   1.387       .  A
C912        C923   1.413       .  A
C913        C921   1.385       .  A
C913        C924   1.414       .  A
C914        C915   1.378   1_556  A
C914        H926   1.082       .  S
C915        H927   1.082       .  S
C916        C917   1.374   1_556  A
C916        H928   1.082       .  S
C917        H929   1.082       .  S
C918        H930   1.082       .  S
C919        H931   1.082       .  S
C920        H932   1.082       .  S
C921        H933   1.082       .  S
C922       C1441   1.483       .  S
C923       C1417   1.482       .  S
C924       C1425   1.488       .  S
C925       C1465   1.481       .  S
C936        N954   1.345       .  A
C936        C973   1.470       .  S
C936       C1657   1.484       .  S
N937        N954   1.320       .  A
N937        N959   1.319       .  A
N937       Co974   2.071       .  S
C938        N963   1.338       .  A
C938        H983   1.082       .  S
C938        C976   1.458       .  S
H939        C980   1.081       .  S
C940        N964   1.347       .  A
C940        H969   1.081       .  S
C940        C944   1.466       .  S
Co941       N959   2.109       .  S
Co941       N949   2.073       .  S
Co941       N981   2.087       .  S
Co941       N957   2.120       .  S
Co941      Cl985   2.461       .  S
N942        C980   1.345       .  A
N942        N949   1.318       .  A
N942       Co943   2.095       .  S
Co943       N946   2.068       .  S
Co943       N963   2.079       .  S
Co943       N950   2.103       .  S
Co943      Cl985   2.446       .  S
C944        N982   1.345       .  A
C944       C1633   1.477       .  S
N945        N952   1.318       .  A
N945        N975   1.321       .  A
N945       Co978   2.069       .  S
N946        N964   1.319       .  A
N946        N982   1.320       .  A
N947        C976   1.358       .  A
N947        N957   1.331       .  A
H948        C973   1.081       .  S
N949        N970   1.322       .  A
N950        N968   1.322       .  A
N950        N955   1.327       .  A
C951        N955   1.354       .  A
C951        C979   1.458       .  S
C951       C1513   1.480       .  S
N952        C967   1.346       .  A
N952       Co974   2.095       .  S
C953        N981   1.342       .  A
C953        H987   1.082       .  S
C953        C956   1.460       .  S
C956        N977   1.350       .  A
C956       C1529   1.470       .  S
N957        N963   1.322       .  A
N958        C984   1.341       .  A
N958        N960   1.321       .  A
N958       Co974   2.086       .  S
N959        C973   1.350       .  A
N960        N988   1.329       .  A
N960       Co978   2.110       .  S
H961        C984   1.082       .  S
H962        C979   1.081       .  S
N964       Co978   2.098       .  S
N965        N977   1.324       .  A
N965        N981   1.321       .  A
N965       Co974   2.089       .  S
C966        N970   1.348       .  A
C966        C980   1.465       .  S
C966       C1457   1.479       .  S
C967        H971   1.081       .  S
C967        C986   1.464       .  S
N968        C979   1.340       .  A
N968       Co978   2.080       .  S
C972        N988   1.355       .  A
C972        C984   1.457       .  S
C972       C1577   1.478       .  S
Co974      Cl985   2.447       .  S
N975        C986   1.347       .  A
C976       C1585   1.488       .  S
Co978      Cl985   2.462       .  S
C986       C1449   1.479       .  S
C989       N1007   1.350       .  A
C989       C1026   1.468       .  S
C989       C1721   1.487       .  S
N990       N1007   1.326       .  A
N990       N1012   1.322       .  A
N990      Co1027   2.087       .  S
C991       N1016   1.340       .  A
C991       H1036   1.081       .  S
C991       C1029   1.460       .  S
H992       C1033   1.082       .  S
C993       N1017   1.337       .  A
C993       H1022   1.082       .  S
C993        C997   1.456       .  S
Co994      N1012   2.108       .  S
Co994      N1002   2.101       .  S
Co994      N1034   2.088       .  S
Co994      N1010   2.096       .  S
Co994     Cl1038   2.448       .  S
N995       C1033   1.343       .  A
N995       N1002   1.322       .  A
N995       Co996   2.092       .  S
Co996       N999   2.089       .  S
Co996      N1016   2.079       .  S
Co996      N1003   2.086       .  S
Co996     Cl1038   2.459       .  S
C997       N1035   1.352       .  A
C997       C1705   1.465       .  S
N998       N1005   1.321       .  A
N998       N1028   1.326       .  A
N998      Co1031   2.088       .  S
N999       N1017   1.319       .  A
N999       N1035   1.325       .  A
N1000      C1029   1.353       .  A
N1000      N1010   1.326       .  A
H1001      C1026   1.082       .  S
N1002      N1023   1.326       .  A
N1003      N1021   1.319       .  A
N1003      N1008   1.324       .  A
C1004      N1008   1.350       .  A
C1004      C1032   1.461       .  S
C1004      C1409   1.480       .  S
N1005      C1020   1.341       .  A
N1005     Co1027   2.092       .  S
C1006      N1034   1.340       .  A
C1006      H1040   1.081       .  S
C1006      C1009   1.458       .  S
C1009      N1030   1.350       .  A
C1009      C1433   1.473       .  S
N1010      N1016   1.319       .  A
N1011      C1037   1.345       .  A
N1011      N1013   1.318       .  A
N1011     Co1027   2.088       .  S
N1012      C1026   1.345       .  A
N1013      N1041   1.321       .  A
N1013     Co1031   2.074       .  S
H1014      C1037   1.081       .  S
H1015      C1032   1.081       .  S
N1017     Co1031   2.074       .  S
N1018      N1030   1.325       .  A
N1018      N1034   1.320       .  A
N1018     Co1027   2.082       .  S
C1019      N1023   1.353       .  A
C1019      C1033   1.462       .  S
C1019      C1377   1.477       .  S
C1020      H1024   1.081       .  S
C1020      C1039   1.463       .  S
N1021      C1032   1.342       .  A
N1021     Co1031   2.088       .  S
C1025      N1041   1.347       .  A
C1025      C1037   1.464       .  S
C1025      C1625   1.475       .  S
Co1027    Cl1038   2.462       .  S
N1028      C1039   1.351       .  A
C1029      C1609   1.482       .  S
Co1031    Cl1038   2.447       .  S
C1039      C1393   1.480       .  S
C1042      N1060   1.349       .  A
C1042      C2807   1.461       .  S
C1042      C1489   1.471       .  S
N1043      N1060   1.324       .  A
N1043      N2793   1.322       .  A
N1043     Co1080   2.093       .  S
C1044      N1069   1.346       .  A
C1044      H1089   1.081       .  S
C1044      C1082   1.465       .  S
H1045      C1086   1.082       .  S
C1046      N1070   1.342       .  A
C1046      H1075   1.082       .  S
C1046      C1050   1.465       .  S
Co1047     N1065   2.089       .  S
Co1047     N1055   2.096       .  S
Co1047     N1087   2.078       .  S
Co1047     N1063   2.070       .  S
Co1047    Cl1955   2.453   1_565  S
N1048      C1086   1.345       .  A
N1048     Co1049   2.113       .  S
Co1049     N1052   2.100       .  S
Co1049     N1069   2.094       .  S
Co1049     N1056   2.098       .  S
Co1049    Cl2819   2.463       .  S
C1050      N2816   1.353       .  A
C1050      C1473   1.488       .  S
N1051      N1081   1.327       .  A
N1051     Co1084   2.091       .  S
N1052      N2798   1.323   1_455  A
N1052      N1088   1.328       .  A
N1053      N1063   1.320       .  A
H1054      C1079   1.082       .  S
N1055      N1076   1.329       .  A
N1056      N2802   1.319   1_455  A
N1056      N1061   1.328       .  A
C1057      N2789   1.355       .  A
C1057      C1085   1.455       .  S
C1057      C1353   1.481       .  S
N1058      C1073   1.343       .  A
N1058     Co1080   2.103       .  S
C1059      N1087   1.338       .  A
C1059      H1093   1.081       .  S
C1059      C2790   1.456       .  S
N1061      C2785   1.355       .  A
C1062      N1083   1.355       .  A
C1062      C2787   1.456       .  S
C1062      C3097   1.484       .  S
N1064      C1090   1.347       .  A
N1064     Co1080   2.094       .  S
N1065      C1079   1.342       .  A
N1065      N2771   1.322   1_455  A
N1066      N1094   1.322       .  A
N1066     Co1084   2.088       .  S
H1067      C1090   1.081       .  S
H1068      C1085   1.080       .  S
N1070      N2780   1.323       .  A
N1070     Co1084   2.097       .  S
N1071      N1083   1.328       .  A
N1071      N2815   1.319       .  A
N1071     Co1080   2.098       .  S
C1072      C1086   1.468       .  S
C1072      C1561   1.490       .  S
C1073      H1077   1.082       .  S
N1074      C1085   1.336       .  A
N1074      N2784   1.319       .  A
N1074     Co1084   2.075       .  S
C1078      N1094   1.348       .  A
C1078      C1337   1.483       .  S
C1079      C2770   1.461       .  S
N1081      C1092   1.353       .  A
C1082      C1321   1.476       .  S
Co1084    Cl1091   2.447       .  S
N1087      N2799   1.319   1_455  A
N1088      C2778   1.353       .  A
Cl1091    Co1911   2.450       .  S
Cl1091    Co2777   2.463       .  S
C1092      C1545   1.480       .  S
C1095      N1113   1.349       .  A
C1095      C1689   1.462       .  S
N1096      N1113   1.322       .  A
N1096     Co1133   2.077       .  S
C1097      N1122   1.339       .  A
C1097      H1142   1.080       .  S
C1097      C1135   1.459       .  S
H1098      C1139   1.081       .  S
C1099      N1123   1.341       .  A
C1099      H1128   1.081       .  S
C1099      C1103   1.463       .  S
Co1100     N1118   2.083       .  S
Co1100     N1108   2.092       .  S
Co1100     N1140   2.078       .  S
Co1100     N1116   2.093       .  S
Co1100    Cl2008   2.454   1_465  S
N1101      C1139   1.343       .  A
N1101      N2836   1.320       .  A
N1101     Co1102   2.093       .  S
Co1102     N1105   2.085       .  S
Co1102     N1122   2.082       .  S
Co1102     N1109   2.072   1_565  S
C1103      C1673   1.480       .  S
N1104      N2839   1.321       .  A
N1104      N1134   1.326       .  A
N1104     Co1137   2.091       .  S
N1105      N1141   1.325       .  A
N1106      C2863   1.353   1_455  A
N1106      N1116   1.328       .  A
H1107      C1132   1.082       .  S
N1108      N2829   1.320   1_455  A
N1108      N1129   1.327       .  A
N1109      N1114   1.320   1_545  A
C1110      C1138   1.460       .  S
C1110      C1297   1.466       .  S
N1111      C1126   1.343       .  A
N1111      N2832   1.321   1_455  A
N1111     Co1133   2.091       .  S
C1112      N1140   1.341       .  A
C1112      H1146   1.081       .  S
C1115      N1136   1.350       .  A
C1115      C1281   1.475       .  S
N1116      N2850   1.318   1_455  A
N1117      C1143   1.338       .  A
N1117      N2847   1.319   1_455  A
N1117     Co1133   2.077       .  S
N1118      C1132   1.338       .  A
N1119      N2845   1.318       .  A
N1119      N1147   1.329       .  A
N1119     Co1137   2.098       .  S
H1120      C1143   1.081       .  S
H1121      C1138   1.081       .  S
N1122      N2844   1.318       .  A
N1123     Co1137   2.099       .  S
N1124      N1136   1.323       .  A
N1124     Co1133   2.085       .  S
C1125      N2857   1.352       .  A
C1125      C1139   1.465       .  S
C1125      C1225   1.485       .  S
C1126      H1130   1.082       .  S
C1126      C2873   1.460       .  S
N1127      C1138   1.342       .  A
N1127     Co1137   2.078       .  S
N1129      C2853   1.352   1_455  A
C1131      N1147   1.354       .  A
C1131      C2871   1.457       .  S
C1131      C1249   1.481       .  S
Co1133    Cl2872   2.450   1_455  S
N1134      C1145   1.350       .  A
C1135      N2834   1.353       .  A
C1135      C1273   1.483       .  S
Co1137    Cl1144   2.454       .  S
C1143      C2859   1.457       .  S
Cl1144    Co1964   2.452       .  S
Cl1144    Co2861   2.450       .  S
C1145      C2854   1.460       .  S
C1145      C1241   1.472       .  S
N1148      C1153   1.352       .  A
N1148      C1152   1.353       .  A
N1148      H1180   1.038       .  S
N1149      C1156   1.353       .  A
N1149      C1157   1.352       .  A
N1150      C1155   1.353       .  A
N1150      C1154   1.353       .  A
N1150      H1181   1.038       .  S
N1151      C1158   1.353       .  A
N1151      C1159   1.354       .  A
C1152      C1160   1.387       .  A
C1152      C1168   1.416       .  A
C1153      C1169   1.416       .  A
C1153      C1161   1.388       .  A
C1154      C1162   1.387       .  A
C1154      C1171   1.417       .  A
C1155      C1170   1.417       .  A
C1155      C1163   1.387       .  A
C1156      C1168   1.417       .  A
C1156      C1164   1.387   1_455  A
C1157      C1171   1.416       .  A
C1157      C1165   1.387   1_455  A
C1158      C1166   1.387       .  A
C1158      C1169   1.417       .  A
C1159      C1167   1.387       .  A
C1159      C1170   1.418       .  A
C1160      C1161   1.377       .  A
C1160      H1172   1.082       .  S
C1161      H1173   1.082       .  S
C1162      C1163   1.377       .  A
C1162      H1174   1.082       .  S
C1163      H1175   1.082       .  S
C1164      C1165   1.370       .  A
C1164      H1176   1.082       .  S
C1165      H1177   1.082       .  S
C1166      C1167   1.370       .  A
C1166      H1178   1.082       .  S
C1167      H1179   1.082       .  S
C1168      C1257   1.486       .  S
C1169      C1345   1.483       .  S
C1170      C1361   1.487       .  S
C1171      C1265   1.485       .  S
N1182      C1187   1.351       .  A
N1182      C1186   1.351       .  A
N1182      H1214   1.040   1_545  S
N1183      C1190   1.351       .  A
N1183      C1191   1.349       .  A
N1184      C1189   1.352       .  A
N1184      C1188   1.350       .  A
N1184      H1215   1.038   1_545  S
N1185      C1192   1.349       .  A
N1185      C1193   1.352   1_545  A
C1186      C1194   1.385       .  A
C1186      C1202   1.409       .  A
C1187      C1203   1.412       .  A
C1187      C1195   1.388       .  A
C1188      C1196   1.388       .  A
C1188      C1205   1.412       .  A
C1189      C1204   1.412       .  A
C1189      C1197   1.386       .  A
C1190      C1202   1.411       .  A
C1190      C1198   1.386   1_545  A
C1191      C1205   1.413       .  A
C1191      C1199   1.388       .  A
C1192      C1200   1.387   1_545  A
C1192      C1203   1.411       .  A
C1193      C1201   1.386       .  A
C1193      C1204   1.412   1_565  A
C1194      C1195   1.377       .  A
C1194      H1206   1.082       .  S
C1195      H1207   1.082       .  S
C1196      C1197   1.379       .  A
C1196      H1208   1.082       .  S
C1197      H1209   1.082       .  S
C1198      C1199   1.371   1_565  A
C1198      H1210   1.082       .  S
C1199      H1211   1.082       .  S
C1200      C1201   1.372       .  A
C1200      H1212   1.082       .  S
C1201      H1213   1.082       .  S
C1202      C1289   1.480   1_545  S
C1203      C1313   1.476       .  S
C1204      C1329   1.484       .  S
C1205      C1305   1.474       .  S
C1216      C1217   1.565       .  S
C1216      C1233   1.563       .  S
C1216      C1385   1.561       .  S
C1216      C3129   1.560   1_455  S
C1217      C1218   1.417       .  A
C1217      C2950   1.417   1_455  A
C1218      C1219   1.399       .  A
C1218      H1227   1.079       .  S
C1219      C1220   1.400       .  A
C1219      H1228   1.084       .  S
C1220      C1226   1.409       .  A
C1220      C2949   1.411   1_455  A
C1221      C2948   1.411       .  A
C1221      C1223   1.403       .  A
C1221      C1222   1.407       .  A
C1222      C2945   1.417       .  A
C1222      H1229   1.084       .  S
C1223      C1224   1.400       .  A
C1223      H1230   1.083       .  S
C1224      C1225   1.405       .  A
C1224      H1231   1.082       .  S
C1225      C2954   1.407       .  A
C1226      C2953   1.407   1_455  A
C1226      H1232   1.084       .  S
C1233      C2962   1.418       .  A
C1233      C1238   1.418       .  A
C1234      C2961   1.418       .  A
C1234      C1235   1.396       .  A
C1234      H1243   1.077       .  S
C1235      C1236   1.397       .  A
C1235      H1244   1.084       .  S
C1236      C1242   1.406       .  A
C1236      C2965   1.412       .  A
C1237      C2964   1.412   1_455  A
C1237      C1239   1.404       .  A
C1237      C1238   1.407       .  A
C1238      H1245   1.084       .  S
C1239      C1240   1.400       .  A
C1239      H1246   1.083       .  S
C1240      C2969   1.401       .  A
C1240      H1247   1.083       .  S
C1241      C2968   1.401       .  A
C1241      C1242   1.402       .  A
C1242      H1248   1.085       .  S
C1249      C2978   1.406       .  A
C1249      C1254   1.407       .  A
C1250      C2977   1.406       .  A
C1250      C1251   1.395       .  A
C1250      H1259   1.082       .  S
C1251      C1252   1.399       .  A
C1251      H1260   1.084       .  S
C1252      C1258   1.402       .  A
C1252      C2981   1.415   1_455  A
C1253      C2980   1.415       .  A
C1253      C1255   1.405       .  A
C1253      C1254   1.409       .  A
C1254      H1261   1.084       .  S
C1255      C1256   1.401       .  A
C1255      H1262   1.084       .  S
C1256      C2985   1.403       .  A
C1256      H1263   1.083       .  S
C1257      C2984   1.403   1_455  A
C1257      C1258   1.401       .  A
C1258      H1264   1.085       .  S
C1265      C1266   1.403       .  A
C1265      C2998   1.402   1_455  A
C1266      C1267   1.399       .  A
C1266      H1275   1.083       .  S
C1267      C1268   1.403       .  A
C1267      H1276   1.083       .  S
C1268      C1274   1.407       .  A
C1268      C2997   1.415   1_455  A
C1269      C2996   1.415       .  A
C1269      C1271   1.400       .  A
C1269      C1270   1.405       .  A
C1270      C2993   1.402       .  A
C1270      H1277   1.084       .  S
C1271      C1272   1.397       .  A
C1271      H1278   1.084       .  S
C1272      C1273   1.407       .  A
C1272      H1279   1.081       .  S
C1273      C3002   1.406       .  A
C1274      C3001   1.406   1_455  A
C1274      H1280   1.084       .  S
C1281      C1282   1.404       .  A
C1282      C1283   1.394       .  A
C1282      H1291   1.083       .  S
C1283      C1284   1.400       .  A
C1283      H1292   1.084       .  S
C1284      C1290   1.399       .  A
C1284      C1285   1.415       .  A
C1286      H1293   1.084       .  S
C1287      C1288   1.398       .  A
C1287      H1294   1.084       .  S
C1288      C1289   1.402       .  A
C1288      H1295   1.083       .  S
C1290      H1296   1.085       .  S
C1297      C1302   1.402       .  A
C1298      C1299   1.392       .  A
C1298      H1307   1.083       .  S
C1299      C1300   1.398   1_565  A
C1299      H1308   1.084       .  S
C1300      C1306   1.398       .  A
C1301      C1303   1.403       .  A
C1301      C1302   1.401       .  A
C1302      H1309   1.084       .  S
C1303      C1304   1.397       .  A
C1303      H1310   1.084       .  S
C1304      H1311   1.083       .  S
C1305      C1306   1.398       .  A
C1306      H1312   1.085   1_545  S
C1313      C1318   1.400   1_545  A
C1314      C1315   1.396       .  A
C1314      H1323   1.083       .  S
C1315      C1316   1.402       .  A
C1315      H1324   1.083       .  S
C1316      C1322   1.404       .  A
C1317      C1319   1.399       .  A
C1317      C1318   1.402       .  A
C1318      H1325   1.085       .  S
C1319      C1320   1.394       .  A
C1319      H1326   1.084       .  S
C1320      H1327   1.083       .  S
C1321      C1322   1.403       .  A
C1322      H1328   1.084       .  S
C1329      C1330   1.403   1_545  A
C1330      C1331   1.399       .  A
C1330      H1339   1.083       .  S
C1331      C1332   1.404       .  A
C1331      H1340   1.083       .  S
C1332      C1338   1.409       .  A
C1333      C1335   1.399       .  A
C1333      C1334   1.405       .  A
C1334      H1341   1.084       .  S
C1335      C1336   1.395       .  A
C1335      H1342   1.084       .  S
C1336      C1337   1.406       .  A
C1336      H1343   1.083       .  S
C1338      H1344   1.083       .  S
C1345      C1346   1.403       .  A
C1345      C3078   1.401   1_455  A
C1346      C1347   1.399       .  A
C1346      H1355   1.083       .  S
C1347      C1348   1.404       .  A
C1347      H1356   1.083       .  S
C1348      C1354   1.407       .  A
C1348      C3077   1.415   1_455  A
C1349      C3076   1.415       .  A
C1349      C1351   1.399       .  A
C1349      C1350   1.402       .  A
C1350      C3073   1.401       .  A
C1350      H1357   1.085       .  S
C1351      C1352   1.394       .  A
C1351      H1358   1.084       .  S
C1352      C1353   1.408       .  A
C1352      H1359   1.081       .  S
C1353      C3082   1.406       .  A
C1354      C3081   1.406   1_455  A
C1354      H1360   1.084       .  S
C1361      C1362   1.403       .  A
C1361      C3094   1.405   1_455  A
C1362      C1363   1.399       .  A
C1362      H1371   1.083       .  S
C1363      C1364   1.404       .  A
C1363      H1372   1.084       .  S
C1364      C1370   1.405       .  A
C1364      C3093   1.413   1_455  A
C1365      C3092   1.413       .  A
C1365      C1367   1.403       .  A
C1365      C1366   1.406       .  A
C1366      C3089   1.405       .  A
C1366      H1373   1.084       .  S
C1367      C1368   1.400       .  A
C1367      H1374   1.083       .  S
C1368      C3097   1.404       .  A
C1368      H1375   1.083       .  S
C1369      C3096   1.404       .  A
C1369      C1370   1.409   1_655  A
C1369      C2790   1.484   1_655  S
C1370      H1376   1.082       .  S
C1377      C1378   1.404       .  A
C1377      C1382   1.402       .  A
C1378      C1379   1.402       .  A
C1378      H1387   1.083       .  S
C1379      C1380   1.406       .  A
C1379      H1388   1.084       .  S
C1380      C1386   1.412       .  A
C1380      C1381   1.413       .  A
C1381      C1383   1.398       .  A
C1381      C1382   1.408       .  A
C1382      H1389   1.084       .  S
C1383      C1384   1.396       .  A
C1383      H1390   1.083       .  S
C1384      C1385   1.415       .  A
C1384      H1391   1.083       .  S
C1385      C1386   1.420       .  A
C1386      H1392   1.081       .  S
C1393      C1394   1.404       .  A
C1393      C1398   1.406       .  A
C1394      C1395   1.400       .  A
C1394      H1403   1.083       .  S
C1395      C1396   1.405       .  A
C1395      H1404   1.084       .  S
C1396      C1402   1.408       .  A
C1396      C1397   1.411       .  A
C1397      C1399   1.399       .  A
C1397      C1398   1.406       .  A
C1398      H1405   1.084       .  S
C1399      C1400   1.397       .  A
C1399      H1406   1.084       .  S
C1400      C1401   1.415       .  A
C1400      H1407   1.083       .  S
C1401      C2944   1.560       .  S
C1401      C1402   1.419       .  A
C1402      H1408   1.078       .  S
C1409      C1410   1.405       .  A
C1409      C1414   1.407       .  A
C1410      C1411   1.397       .  A
C1410      H1419   1.083       .  S
C1411      C1412   1.401       .  A
C1411      H1420   1.084       .  S
C1412      C1418   1.403       .  A
C1412      C1413   1.415       .  A
C1413      C1415   1.404       .  A
C1413      C1414   1.405       .  A
C1414      H1421   1.083       .  S
C1415      C1416   1.398       .  A
C1415      H1422   1.084       .  S
C1416      C1417   1.403       .  A
C1416      H1423   1.083       .  S
C1417      C1418   1.402       .  A
C1418      H1424   1.084       .  S
C1425      C1426   1.403       .  A
C1425      C1430   1.405       .  A
C1426      C1427   1.398       .  A
C1426      H1435   1.083       .  S
C1427      C1428   1.404       .  A
C1427      H1436   1.084       .  S
C1428      C1434   1.403       .  A
C1428      C1429   1.414       .  A
C1429      C1431   1.403       .  A
C1429      C1430   1.402       .  A
C1430      H1437   1.085       .  S
C1431      C1432   1.397       .  A
C1431      H1438   1.084       .  S
C1432      C1433   1.403       .  A
C1432      H1439   1.083       .  S
C1433      C1434   1.405       .  A
C1434      H1440   1.084       .  S
C1441      C1442   1.403       .  A
C1441      C1446   1.402       .  A
C1442      C1443   1.399       .  A
C1442      H1451   1.083       .  S
C1443      C1444   1.404       .  A
C1443      H1452   1.083       .  S
C1444      C1450   1.406       .  A
C1444      C1445   1.415       .  A
C1445      C1447   1.400       .  A
C1445      C1446   1.402       .  A
C1446      H1453   1.085       .  S
C1447      C1448   1.395       .  A
C1447      H1454   1.084       .  S
C1448      C1449   1.406       .  A
C1448      H1455   1.083       .  S
C1449      C1450   1.406       .  A
C1450      H1456   1.083       .  S
C1457      C1458   1.406       .  A
C1457      C1462   1.406       .  A
C1458      C1459   1.395       .  A
C1458      H1467   1.083       .  S
C1459      C1460   1.399       .  A
C1459      H1468   1.084       .  S
C1460      C1466   1.401       .  A
C1460      C1461   1.415       .  A
C1461      C1463   1.404       .  A
C1461      C1462   1.406       .  A
C1462      H1469   1.083       .  S
C1463      C1464   1.399       .  A
C1463      H1470   1.083       .  S
C1464      C1465   1.402       .  A
C1464      H1471   1.083       .  S
C1465      C1466   1.401       .  A
C1466      H1472   1.085       .  S
C1473      C3202   1.408       .  A
C1473      C1478   1.402       .  A
C1474      C3201   1.408       .  A
C1474      C1475   1.408       .  A
C1474      H1483   1.083       .  S
C1475      C1476   1.407       .  A
C1475      H1484   1.083       .  S
C1476      C1482   1.420       .  A
C1476      C3205   1.412   1_455  A
C1477      C3204   1.412       .  A
C1477      C1479   1.391       .  A
C1477      C1478   1.405       .  A
C1478      H1485   1.084       .  S
C1479      C1480   1.390       .  A
C1479      H1486   1.084       .  S
C1480      C3209   1.423       .  A
C1480      H1487   1.079       .  S
C1481      C3208   1.423       .  A
C1481      C1482   1.420   1_655  A
C1482      H1488   1.084       .  S
C1489      C1490   1.404       .  A
C1489      C3222   1.396       .  A
C1490      C1491   1.404       .  A
C1490      H1499   1.083       .  S
C1491      C1492   1.406       .  A
C1491      H1500   1.083       .  S
C1492      C1498   1.416       .  A
C1492      C3221   1.416       .  A
C1493      C3220   1.416       .  A
C1493      C1495   1.392       .  A
C1493      C1494   1.403       .  A
C1494      C3217   1.396       .  A
C1494      H1501   1.085       .  S
C1495      C1496   1.387       .  A
C1495      H1502   1.084       .  S
C1496      C1497   1.420       .  A
C1496      H1503   1.083       .  S
C1497      C3226   1.414       .  A
C1498      C3225   1.414       .  A
C1498      H1504   1.080       .  S
C1505      C1506   1.423       .  A
C1505      C1510   1.417       .  A
C1506      C1507   1.390       .  A
C1506      H1515   1.078       .  S
C1507      C1508   1.391       .  A
C1507      H1516   1.084       .  S
C1508      C1514   1.404       .  A
C1508      C1509   1.413       .  A
C1509      C1511   1.404       .  A
C1509      C1510   1.414       .  A
C1510      H1517   1.084       .  S
C1511      C1512   1.403       .  A
C1511      H1518   1.083       .  S
C1512      C1513   1.407       .  A
C1512      H1519   1.083       .  S
C1513      C1514   1.399       .  A
C1514      H1520   1.085       .  S
C1521      C2629   1.559       .  S
C1521      C1522   1.418       .  A
C1521      C1526   1.415       .  A
C1522      C1523   1.389       .  A
C1522      H1531   1.083       .  S
C1523      C1524   1.393       .  A
C1523      H1532   1.084       .  S
C1524      C1530   1.403       .  A
C1524      C1525   1.416       .  A
C1525      C1527   1.405       .  A
C1525      C1526   1.413       .  A
C1526      H1533   1.080       .  S
C1527      C1528   1.402       .  A
C1527      H1534   1.083       .  S
C1528      C1529   1.404       .  A
C1528      H1535   1.083       .  S
C1529      C1530   1.397       .  A
C1530      H1536   1.085       .  S
C1537      C1542   1.418       .  A
C1538      C1539   1.396       .  A
C1538      H1547   1.083   1_545  S
C1539      C1540   1.398       .  A
C1539      H1548   1.084       .  S
C1540      C1546   1.408       .  A
C1541      C1543   1.405       .  A
C1541      C1542   1.413       .  A
C1542      H1549   1.079       .  S
C1543      C1544   1.402       .  A
C1543      H1550   1.083       .  S
C1544      C1545   1.403       .  A
C1544      H1551   1.083       .  S
C1546      H1552   1.084       .  S
C1553      C1558   1.420       .  A
C1554      C1555   1.405       .  A
C1554      H1563   1.083       .  S
C1555      C1556   1.404       .  A
C1555      H1564   1.083       .  S
C1556      C1562   1.415       .  A
C1557      C1559   1.404       .  A
C1557      C1558   1.408       .  A
C1558      H1565   1.078       .  S
C1559      C1560   1.399       .  A
C1559      H1566   1.084       .  S
C1560      C1561   1.403       .  A
C1560      H1567   1.083       .  S
C1562      H1568   1.084       .  S
C1569      C1570   1.417       .  A
C1569      C1574   1.419       .  A
C1570      C1571   1.399       .  A
C1570      H1579   1.077       .  S
C1571      C1572   1.399       .  A
C1571      H1580   1.084       .  S
C1572      C1578   1.409       .  A
C1572      C1573   1.412       .  A
C1573      C1575   1.405       .  A
C1573      C1574   1.409       .  A
C1574      H1581   1.084       .  S
C1575      C1576   1.402       .  A
C1575      H1582   1.084       .  S
C1576      C1577   1.403       .  A
C1576      H1583   1.083       .  S
C1577      C1578   1.404       .  A
C1578      H1584   1.084       .  S
C1585      C1586   1.408       .  A
C1585      C1590   1.404       .  A
C1586      C1587   1.402       .  A
C1586      H1595   1.082       .  S
C1587      C1588   1.403       .  A
C1587      H1596   1.084       .  S
C1588      C1594   1.413       .  A
C1588      C1589   1.413       .  A
C1589      C1591   1.396       .  A
C1589      C1590   1.410       .  A
C1590      H1597   1.084       .  S
C1591      C1592   1.397       .  A
C1591      H1598   1.084       .  S
C1592      C1593   1.420       .  A
C1592      H1599   1.079       .  S
C1593      C1594   1.417       .  A
C1594      H1600   1.084       .  S
C1601      C1602   1.404       .  A
C1601      C1606   1.406       .  A
C1602      C1603   1.400       .  A
C1602      H1611   1.083       .  S
C1603      C1604   1.405       .  A
C1603      H1612   1.084       .  S
C1604      C1610   1.406       .  A
C1604      C1605   1.413       .  A
C1605      C1607   1.402       .  A
C1605      C1606   1.403       .  A
C1606      H1613   1.084       .  S
C1607      C1608   1.398       .  A
C1607      H1614   1.084       .  S
C1608      C1609   1.405       .  A
C1608      H1615   1.083       .  S
C1609      C1610   1.409       .  A
C1610      H1616   1.083       .  S
C1617      C1618   1.402       .  A
C1617      C1622   1.399       .  A
C1618      C1619   1.400       .  A
C1618      H1627   1.083       .  S
C1619      C1620   1.405       .  A
C1619      H1628   1.083       .  S
C1620      C1626   1.406       .  A
C1620      C1621   1.415       .  A
C1621      C1623   1.398       .  A
C1621      C1622   1.398       .  A
C1622      H1629   1.085       .  S
C1623      C1624   1.392       .  A
C1623      H1630   1.084       .  S
C1624      C1625   1.405       .  A
C1624      H1631   1.083       .  S
C1625      C1626   1.406       .  A
C1626      H1632   1.083       .  S
C1633      C1634   1.406       .  A
C1633      C1638   1.406       .  A
C1634      C1635   1.392       .  A
C1634      H1643   1.083       .  S
C1635      C1636   1.398       .  A
C1635      H1644   1.084       .  S
C1636      C1642   1.399       .  A
C1636      C1637   1.416       .  A
C1637      C1639   1.405       .  A
C1637      C1638   1.407       .  A
C1638      H1645   1.083       .  S
C1639      C1640   1.400       .  A
C1639      H1646   1.083       .  S
C1640      C1641   1.402       .  A
C1640      H1647   1.083       .  S
C1641      C1642   1.400       .  A
C1642      H1648   1.085       .  S
C1649      C1650   1.403       .  A
C1649      C1654   1.402       .  A
C1650      C1651   1.400       .  A
C1650      H1659   1.083       .  S
C1651      C1652   1.404       .  A
C1651      H1660   1.083       .  S
C1652      C1658   1.411       .  A
C1652      C1653   1.416       .  A
C1653      C1655   1.398       .  A
C1653      C1654   1.404       .  A
C1654      H1661   1.084       .  S
C1655      C1656   1.394       .  A
C1655      H1662   1.084       .  S
C1656      C1657   1.408       .  A
C1656      H1663   1.083       .  S
C1657      C1658   1.407       .  A
C1658      H1664   1.083       .  S
C1665      C1670   1.418       .  A
C1666      C1667   1.404       .  A
C1666      H1675   1.083       .  S
C1667      C1668   1.404       .  A
C1667      H1676   1.083       .  S
C1668      C1674   1.409       .  A
C1669      C1671   1.402       .  A
C1669      C1670   1.399       .  A
C1670      H1677   1.080       .  S
C1671      C1672   1.393       .  A
C1671      H1678   1.084       .  S
C1672      C1673   1.402       .  A
C1672      H1679   1.083       .  S
C1674      H1680   1.084       .  S
C1681      C1686   1.412       .  A
C1682      C1683   1.388   1_565  A
C1682      H1691   1.083       .  S
C1683      C1684   1.392       .  A
C1683      H1692   1.084       .  S
C1684      C1690   1.400       .  A
C1685      C1687   1.403       .  A
C1685      C1686   1.408       .  A
C1686      H1693   1.080       .  S
C1687      C1688   1.398       .  A
C1687      H1694   1.083       .  S
C1688      C1689   1.402       .  A
C1688      H1695   1.083       .  S
C1690      H1696   1.085       .  S
C1697      C1698   1.419       .  A
C1697      C1702   1.413       .  A
C1698      C1699   1.387       .  A
C1698      H1707   1.083       .  S
C1699      C1700   1.392       .  A
C1699      H1708   1.084       .  S
C1700      C1706   1.401       .  A
C1700      C1701   1.416       .  A
C1701      C1703   1.404       .  A
C1701      C1702   1.412       .  A
C1702      H1709   1.080       .  S
C1703      C1704   1.401       .  A
C1703      H1710   1.083       .  S
C1704      C1705   1.403       .  A
C1704      H1711   1.083       .  S
C1705      C1706   1.395       .  A
C1706      H1712   1.085       .  S
C1713      C1714   1.422       .  A
C1713      C1718   1.418       .  A
C1714      C1715   1.391       .  A
C1714      H1723   1.079       .  S
C1715      C1716   1.392       .  A
C1715      H1724   1.084       .  S
C1716      C1722   1.406       .  A
C1716      C1717   1.413       .  A
C1717      C1719   1.405       .  A
C1717      C1718   1.417       .  A
C1718      H1725   1.084       .  S
C1719      C1720   1.406       .  A
C1719      H1726   1.083       .  S
C1720      C1721   1.408       .  A
C1720      H1727   1.083       .  S
C1721      C1722   1.401       .  A
C1722      H1728   1.084       .  S
C1729      C3393   1.561       .  S
C1729      C3409   1.554       .  S
C1729      C3425   1.556       .  S
C1729      C2577   1.564       .  S
N1730      C1735   1.352       .  A
N1730      C1734   1.353   1_556  A
N1730      H1762   1.038       .  S
N1731      C1739   1.352       .  A
N1732      C1737   1.351   1_554  A
N1732      C1736   1.353       .  A
N1732      H1763   1.036       .  S
N1733      C1741   1.352       .  A
C1734      C1742   1.387       .  A
C1734      C1750   1.414       .  A
C1735      C1751   1.413       .  A
C1735      C1743   1.387       .  A
C1736      C1744   1.387       .  A
C1736      C1753   1.415       .  A
C1737      C1752   1.413       .  A
C1737      C1745   1.387       .  A
C1738      C1750   1.413       .  A
C1738      C1746   1.386       .  A
C1739      C1753   1.415       .  A
C1739      C1747   1.387       .  A
C1740      C1748   1.386       .  A
C1740      C1751   1.415       .  A
C1741      C1749   1.387       .  A
C1741      C1752   1.415       .  A
C1742      C1743   1.377   1_554  A
C1742      H1754   1.082       .  S
C1743      H1755   1.082       .  S
C1744      C1745   1.377   1_554  A
C1744      H1756   1.082       .  S
C1745      H1757   1.082       .  S
C1746      H1758   1.082       .  S
C1747      H1759   1.082       .  S
C1748      H1760   1.082       .  S
C1749      H1761   1.082       .  S
C1750      C2481   1.482       .  S
C1751      C2513   1.485       .  S
C1752      C2505   1.479       .  S
C1753      C2465   1.484       .  S
C1764      C2401   1.561       .  S
C1764      C2417   1.568       .  S
C1764      C2433   1.565   1_565  S
C1764      C3321   1.569       .  S
C1765      C2345   1.569       .  S
C1765      C2361   1.555       .  S
C1765      C2369   1.563       .  S
N1766      C1771   1.353       .  A
N1766      C1770   1.354   1_554  A
N1766      H1798   1.037       .  S
N1767      C2638   1.353       .  A
N1767      C1775   1.353       .  A
N1768      C1773   1.354       .  A
N1768      C1772   1.352   1_554  A
N1768      H1799   1.039       .  S
N1769      C2640   1.351       .  A
N1769      C1777   1.351       .  A
C1770      C1778   1.387       .  A
C1770      C1786   1.417       .  A
C1771      C1787   1.418       .  A
C1771      C1779   1.388       .  A
C1772      C1780   1.387       .  A
C1772      C1789   1.413       .  A
C1773      C1788   1.415       .  A
C1773      C1781   1.387       .  A
C1774      N2631   1.353   1_545  A
C1774      C1786   1.418       .  A
C1774      C1782   1.388       .  A
C1775      C1789   1.414       .  A
C1775      C1783   1.385       .  A
C1776      N2633   1.352   1_545  A
C1776      C1784   1.388       .  A
C1776      C1787   1.416       .  A
C1777      C1785   1.386       .  A
C1777      C1788   1.412       .  A
C1778      C1779   1.378   1_556  A
C1778      H1790   1.082       .  S
C1779      H1791   1.082       .  S
C1780      C1781   1.375   1_556  A
C1780      H1792   1.082       .  S
C1781      H1793   1.082       .  S
C1782      C2647   1.370   1_545  A
C1782      H1794   1.082       .  S
C1783      C2646   1.370       .  A
C1783      H1795   1.082       .  S
C1784      C2649   1.368   1_545  A
C1784      H1796   1.082       .  S
C1785      C2648   1.370       .  A
C1785      H1797   1.082       .  S
C1786      C2305   1.487       .  S
C1787      C2281   1.484       .  S
C1788      C2289   1.486       .  S
C1789      C2329   1.483       .  S
C1800      N1818   1.344       .  A
C1800      C1837   1.468       .  S
C1800      C2521   1.479       .  S
N1801      N1818   1.319       .  A
N1801      N1823   1.319       .  A
N1801     Co1838   2.067       .  S
C1802      N1827   1.338       .  A
C1802      H1847   1.081       .  S
C1802      C1840   1.456       .  S
H1803      C1844   1.081       .  S
C1804      N1828   1.346       .  A
C1804      H1833   1.081       .  S
C1804      C1808   1.464       .  S
Co1805     N1823   2.103       .  S
Co1805     N1813   2.076       .  S
Co1805     N1845   2.085       .  S
Co1805     N1821   2.115       .  S
Co1805    Cl1849   2.461       .  S
N1806      C1844   1.344       .  A
N1806      N1813   1.318       .  A
N1806     Co1807   2.092       .  S
Co1807     N1810   2.063       .  S
Co1807     N1827   2.071       .  S
Co1807     N1814   2.094       .  S
Co1807    Cl1849   2.442       .  S
C1808      N1846   1.343       .  A
C1808      C2497   1.470       .  S
N1809      N1816   1.318       .  A
N1809      N1839   1.322       .  A
N1809     Co1842   2.076       .  S
N1810      N1828   1.319       .  A
N1810      N1846   1.319       .  A
N1811      C1840   1.358       .  A
N1811      N1821   1.329       .  A
H1812      C1837   1.081       .  S
N1813      N1834   1.323       .  A
N1814      N1832   1.321       .  A
N1814      N1819   1.325       .  A
C1815      N1819   1.351       .  A
C1815      C1843   1.460       .  S
C1815      C2377   1.477       .  S
N1816      C1831   1.347       .  A
N1816     Co1838   2.097       .  S
C1817      N1845   1.341       .  A
C1817      H1851   1.082       .  S
C1817      C1820   1.461       .  S
C1820      N1841   1.349       .  A
C1820      C2393   1.467       .  S
N1821      N1827   1.321       .  A
N1822      C1848   1.339       .  A
N1822      N1824   1.320       .  A
N1822     Co1838   2.080       .  S
N1823      C1837   1.348       .  A
N1824      N1852   1.329       .  A
N1824     Co1842   2.107       .  S
H1825      C1848   1.082       .  S
H1826      C1843   1.081       .  S
N1828     Co1842   2.095       .  S
N1829      N1841   1.323       .  A
N1829      N1845   1.320       .  A
N1829     Co1838   2.085       .  S
C1830      N1834   1.349       .  A
C1830      C1844   1.464       .  S
C1830      C2321   1.479       .  S
C1831      H1835   1.081       .  S
C1831      C1850   1.465       .  S
N1832      C1843   1.340       .  A
N1832     Co1842   2.083       .  S
C1836      N1852   1.355       .  A
C1836      C1848   1.455       .  S
C1836      C2441   1.474       .  S
Co1838    Cl1849   2.443       .  S
N1839      C1850   1.348       .  A
C1840      C2449   1.483       .  S
Co1842    Cl1849   2.464       .  S
C1850      C2313   1.482       .  S
C1853      N1871   1.350       .  A
C1853      C1890   1.467       .  S
C1853      C2585   1.486       .  S
N1854      N1871   1.326       .  A
N1854      N1876   1.322       .  A
N1854     Co1891   2.089       .  S
C1855      N1880   1.342       .  A
C1855      H1900   1.081       .  S
C1855      C1893   1.460       .  S
H1856      C1897   1.082       .  S
C1857      N1881   1.339       .  A
C1857      H1886   1.082       .  S
C1857      C1861   1.457       .  S
Co1858     N1876   2.105       .  S
Co1858     N1866   2.098       .  S
Co1858     N1898   2.087       .  S
Co1858     N1874   2.090       .  S
Co1858    Cl1902   2.445       .  S
N1859      C1897   1.343       .  A
N1859      N1866   1.321       .  A
N1859     Co1860   2.092       .  S
Co1860     N1863   2.087       .  S
Co1860     N1880   2.081       .  S
Co1860     N1867   2.084       .  S
Co1860    Cl1902   2.461       .  S
C1861      N1899   1.350       .  A
C1861      C2569   1.465       .  S
N1862      N1869   1.321       .  A
N1862      N1892   1.326       .  A
N1862     Co1895   2.094       .  S
N1863      N1881   1.320       .  A
N1863      N1899   1.324       .  A
N1864      C1893   1.351       .  A
N1864      N1874   1.324       .  A
H1865      C1890   1.082       .  S
N1866      N1887   1.326       .  A
N1867      N1885   1.319       .  A
N1867      N1872   1.324       .  A
C1868      N1872   1.350       .  A
C1868      C1896   1.464       .  S
C1868      C2273   1.481       .  S
N1869      C1884   1.342       .  A
N1869     Co1891   2.093       .  S
C1870      N1898   1.341       .  A
C1870      H1904   1.081       .  S
C1870      C1873   1.459       .  S
C1873      N1894   1.350       .  A
C1873      C2297   1.474       .  S
N1874      N1880   1.319       .  A
N1875      C1901   1.344       .  A
N1875      N1877   1.319       .  A
N1875     Co1891   2.087       .  S
N1876      C1890   1.345       .  A
N1877      N1905   1.322       .  A
N1877     Co1895   2.079       .  S
H1878      C1901   1.081       .  S
H1879      C1896   1.081       .  S
N1881     Co1895   2.080       .  S
N1882      N1894   1.325       .  A
N1882      N1898   1.320       .  A
N1882     Co1891   2.080       .  S
C1883      N1887   1.352       .  A
C1883      C1897   1.462       .  S
C1883      C2241   1.476       .  S
C1884      H1888   1.081       .  S
C1884      C1903   1.463       .  S
N1885      C1896   1.343       .  A
N1885     Co1895   2.091       .  S
C1889      N1905   1.348       .  A
C1889      C1901   1.463       .  S
C1889      C2489   1.477       .  S
Co1891    Cl1902   2.463       .  S
N1892      C1903   1.352       .  A
C1893      C2473   1.479       .  S
Co1895    Cl1902   2.448       .  S
C1903      C2257   1.482       .  S
C1906      N1924   1.349   1_455  A
C1906      C2353   1.464       .  S
N1907      N1924   1.323       .  A
N1907     Co1944   2.087       .  S
C1908      N1933   1.346       .  A
C1908      H1953   1.081       .  S
C1908      C1946   1.466       .  S
H1909      C1950   1.082       .  S
C1910      N1934   1.342       .  A
C1910      H1939   1.082       .  S
C1910      C1914   1.465   1_655  S
Co1911     N1929   2.082       .  S
Co1911     N1919   2.093       .  S
Co1911     N1951   2.076       .  S
Co1911     N1927   2.070       .  S
N1912      C1950   1.344       .  A
N1912      N2783   1.323   1_545  A
N1912     Co1913   2.108       .  S
Co1913     N1916   2.099       .  S
Co1913     N1933   2.093       .  S
Co1913     N1920   2.100       .  S
C1914      C2337   1.488       .  S
N1915      N2786   1.320   1_545  A
N1915      N1945   1.325       .  A
N1915     Co1948   2.082       .  S
N1916      N1952   1.328       .  A
N1917      C2810   1.345       .  A
N1917      N1927   1.321       .  A
H1918      C1943   1.082       .  S
N1919      N2776   1.323       .  A
N1919      N1940   1.329       .  A
N1920      N1925   1.328       .  A
C1921      C1949   1.452   1_455  S
C1921      C2217   1.477       .  S
N1922      C1937   1.344       .  A
N1922      N2779   1.321       .  A
N1922     Co1944   2.105       .  S
C1923      N1951   1.337       .  A
C1923      H1957   1.081       .  S
C1926      N1947   1.354       .  A
N1927      N2797   1.318       .  A
N1928      C1954   1.346       .  A
N1928      N2794   1.319       .  A
N1928     Co1944   2.087       .  S
N1929      C1943   1.340       .  A
N1930      N2792   1.319   1_545  A
N1930      N1958   1.323       .  A
N1930     Co1948   2.087       .  S
H1931      C1954   1.081       .  S
H1932      C1949   1.081       .  S
N1933      N2791   1.319   1_545  A
N1934     Co1948   2.097       .  S
N1935      N1947   1.329       .  A
N1935     Co1944   2.098       .  S
C1936      N2804   1.352   1_545  A
C1936      C1950   1.465       .  S
C1936      C2425   1.489       .  S
C1937      H1941   1.082       .  S
C1937      C2820   1.466       .  S
N1938      C1949   1.335       .  A
N1938     Co1948   2.068       .  S
N1940      C2800   1.351       .  A
C1942      N1958   1.349       .  A
C1942      C2818   1.467   1_545  S
C1942      C2201   1.485       .  S
Co1944    Cl2819   2.462   1_655  S
N1945      C1956   1.351       .  A
C1946      N2781   1.344   1_545  A
C1946      C2185   1.475       .  S
Co1948    Cl1955   2.448   1_655  S
C1954      C2806   1.465       .  S
Cl1955    Co2808   2.458   1_445  S
C1956      C2801   1.465   1_545  S
C1956      C2409   1.475       .  S
C1959      N1977   1.349       .  A
C1959      C2860   1.459   1_545  S
C1959      C2553   1.462       .  S
N1960      N1977   1.323       .  A
N1960      N2846   1.320   1_545  A
N1960     Co1997   2.079       .  S
C1961      N1986   1.339       .  A
C1961      H2006   1.081       .  S
C1961      C1999   1.459       .  S
H1962      C2003   1.081       .  S
C1963      N1987   1.341       .  A
C1963      H1992   1.082       .  S
C1963      C1967   1.462       .  S
Co1964     N1982   2.084       .  S
Co1964     N1972   2.096       .  S
Co1964     N2004   2.080       .  S
Co1964     N1980   2.091       .  S
N1965      C2003   1.341       .  A
N1965     Co1966   2.085       .  S
Co1966     N1969   2.085       .  S
Co1966     N1986   2.080       .  S
Co1966     N1973   2.069       .  S
Co1966    Cl2872   2.451       .  S
C1967      N2869   1.349   1_545  A
C1967      C2537   1.477       .  S
N1968      N1998   1.326       .  A
N1968     Co2001   2.089       .  S
N1969      N2851   1.322       .  A
N1969      N2005   1.327       .  A
N1970      N1980   1.327       .  A
H1971      C1996   1.082       .  S
N1972      N1993   1.327       .  A
N1973      N2855   1.319       .  A
N1973      N1978   1.319       .  A
C1974      N2842   1.345   1_545  A
C1974      C2002   1.461       .  S
C1974      C2161   1.469       .  S
N1975      C1990   1.344       .  A
N1975     Co1997   2.092       .  S
C1976      N2004   1.340       .  A
C1976      H2010   1.081       .  S
C1976      C2843   1.459       .  S
N1978      C2838   1.344       .  A
C1979      N2000   1.348       .  A
C1979      C2840   1.459   1_545  S
C1979      C2145   1.472       .  S
N1981      C2007   1.335       .  A
N1981     Co1997   2.078       .  S
N1982      C1996   1.338       .  A
N1982      N2824   1.319       .  A
N1983      N2011   1.330       .  A
N1983     Co2001   2.101       .  S
H1984      C2007   1.080       .  S
H1985      C2002   1.081       .  S
N1987      N2833   1.323   1_545  A
N1987     Co2001   2.097       .  S
N1988      N2000   1.323       .  A
N1988      N2868   1.319   1_545  A
N1988     Co1997   2.083       .  S
C1989      C2003   1.463       .  S
C1989      C2089   1.483       .  S
C1990      H1994   1.081       .  S
N1991      C2002   1.343       .  A
N1991      N2837   1.319       .  A
N1991     Co2001   2.082       .  S
C1995      N2011   1.356   1_455  A
C1995      C2113   1.486       .  S
C1996      C2823   1.460       .  S
N1998      C2009   1.349   1_655  A
C1999      C2137   1.481       .  S
Co2001    Cl2008   2.459       .  S
N2004      N2852   1.320       .  A
N2005      C2831   1.350       .  A
Cl2008    Co2830   2.450   1_545  S
C2009      C2105   1.474       .  S
N2012      C2017   1.351       .  A
N2012      C2016   1.354       .  A
N2012      H2044   1.039       .  S
N2013      C2020   1.350       .  A
N2013      C2021   1.351       .  A
N2014      C2019   1.353       .  A
N2014      C2018   1.352       .  A
N2014      H2045   1.040       .  S
N2015      C2022   1.351       .  A
N2015      C2023   1.351       .  A
C2016      C2024   1.387       .  A
C2016      C2032   1.415       .  A
C2017      C2033   1.413       .  A
C2017      C2025   1.387       .  A
C2018      C2026   1.386       .  A
C2018      C2035   1.413       .  A
C2019      C2034   1.414       .  A
C2019      C2027   1.387       .  A
C2020      C2032   1.413       .  A
C2020      C2028   1.387       .  A
C2021      C2035   1.412       .  A
C2021      C2029   1.386       .  A
C2022      C2030   1.387       .  A
C2022      C2033   1.413       .  A
C2023      C2031   1.386       .  A
C2023      C2034   1.412       .  A
C2024      C2025   1.379       .  A
C2024      H2036   1.082       .  S
C2025      H2037   1.082       .  S
C2026      C2027   1.378       .  A
C2026      H2038   1.082       .  S
C2027      H2039   1.082       .  S
C2028      C2029   1.372       .  A
C2028      H2040   1.082       .  S
C2029      H2041   1.082       .  S
C2030      C2031   1.372       .  A
C2030      H2042   1.082       .  S
C2031      H2043   1.082       .  S
C2032      C2121   1.484       .  S
C2033      C2209   1.480       .  S
C2034      C2225   1.484       .  S
C2035      C2129   1.482       .  S
N2046      C2051   1.352       .  A
N2046      C2050   1.352       .  A
N2046      H2078   1.037       .  S
N2047      C2054   1.352       .  A
N2047      C2055   1.350       .  A
N2048      C2053   1.352       .  A
N2048      C2052   1.349       .  A
N2048      H2079   1.035       .  S
N2049      C2056   1.349       .  A
N2049      C2057   1.352       .  A
C2050      C2058   1.386       .  A
C2050      C2066   1.412       .  A
C2051      C2067   1.414       .  A
C2051      C2059   1.388       .  A
C2052      C2060   1.389       .  A
C2052      C2069   1.414       .  A
C2053      C2068   1.414       .  A
C2053      C2061   1.386       .  A
C2054      C2066   1.414       .  A
C2054      C2062   1.387       .  A
C2055      C2069   1.416       .  A
C2055      C2063   1.388       .  A
C2056      C2064   1.386       .  A
C2056      C2067   1.413       .  A
C2057      C2065   1.387       .  A
C2057      C2068   1.415       .  A
C2058      C2059   1.376       .  A
C2058      H2070   1.082       .  S
C2059      H2071   1.082       .  S
C2060      C2061   1.377       .  A
C2060      H2072   1.083       .  S
C2061      H2073   1.082       .  S
C2062      C2063   1.370       .  A
C2062      H2074   1.082       .  S
C2063      H2075   1.082       .  S
C2064      C2065   1.370       .  A
C2064      H2076   1.082       .  S
C2065      H2077   1.082       .  S
C2066      C2153   1.481       .  S
C2067      C2177   1.477       .  S
C2068      C2193   1.486       .  S
C2069      C2169   1.473       .  S
C2080      C2081   1.565       .  S
C2080      C2097   1.566       .  S
C2080      C2249   1.562       .  S
C2081      C2082   1.417       .  A
C2082      C2083   1.398       .  A
C2082      H2091   1.078       .  S
C2083      C2084   1.399       .  A
C2083      H2092   1.084       .  S
C2084      C2090   1.408       .  A
C2085      C2087   1.402       .  A
C2085      C2086   1.407       .  A
C2086      H2093   1.084       .  S
C2087      C2088   1.399       .  A
C2087      H2094   1.084       .  S
C2088      C2089   1.406       .  A
C2088      H2095   1.082       .  S
C2090      H2096   1.084       .  S
C2097      C2102   1.419       .  A
C2098      C2099   1.397       .  A
C2098      H2107   1.076       .  S
C2099      C2100   1.397       .  A
C2099      H2108   1.084       .  S
C2100      C2106   1.407       .  A
C2101      C2103   1.404       .  A
C2101      C2102   1.408       .  A
C2102      H2109   1.084       .  S
C2103      C2104   1.401       .  A
C2103      H2110   1.083       .  S
C2104      H2111   1.083       .  S
C2105      C2106   1.403   1_455  A
C2106      H2112   1.085       .  S
C2113      C2118   1.408   1_455  A
C2114      C2115   1.393       .  A
C2114      H2123   1.081       .  S
C2115      C2116   1.397       .  A
C2115      H2124   1.084       .  S
C2116      C2122   1.403       .  A
C2117      C2119   1.404       .  A
C2117      C2118   1.411       .  A
C2118      H2125   1.084       .  S
C2119      C2120   1.401       .  A
C2119      H2126   1.083       .  S
C2120      H2127   1.083       .  S
C2121      C2122   1.400       .  A
C2122      H2128   1.084       .  S
C2129      C2130   1.402       .  A
C2130      C2131   1.400       .  A
C2130      H2139   1.083       .  S
C2131      C2132   1.405       .  A
C2131      H2140   1.084       .  S
C2132      C2138   1.407       .  A
C2133      C2135   1.400       .  A
C2133      C2134   1.403       .  A
C2134      H2141   1.085       .  S
C2135      C2136   1.396       .  A
C2135      H2142   1.084       .  S
C2136      C2137   1.406       .  A
C2136      H2143   1.082       .  S
C2138      H2144   1.084       .  S
C2145      C2146   1.404       .  A
C2145      C3014   1.405   1_545  A
C2146      C2147   1.394       .  A
C2146      H2155   1.083       .  S
C2147      C2148   1.400       .  A
C2147      H2156   1.084       .  S
C2148      C2154   1.399       .  A
C2148      C2149   1.415   1_545  A
C2149      C3015   1.404       .  A
C2149      C3014   1.403       .  A
C2150      C3009   1.407       .  A
C2150      C3013   1.404       .  A
C2150      H2157   1.083       .  S
C2151      C3013   1.404       .  A
C2151      C2152   1.399       .  A
C2151      H2158   1.084       .  S
C2152      C2153   1.403       .  A
C2152      H2159   1.083       .  S
C2153      C3018   1.401       .  A
C2154      C3017   1.401   1_545  A
C2154      H2160   1.085       .  S
C2161      C3026   1.405   1_545  A
C2161      C2166   1.403       .  A
C2162      C3025   1.404       .  A
C2162      C2163   1.390       .  A
C2162      H2171   1.083       .  S
C2163      C2164   1.398       .  A
C2163      H2172   1.084       .  S
C2164      C2170   1.395       .  A
C2164      C3029   1.416       .  A
C2165      C3028   1.416       .  A
C2165      C2167   1.403       .  A
C2165      C2166   1.402       .  A
C2166      H2173   1.084       .  S
C2167      C2168   1.397       .  A
C2167      H2174   1.084       .  S
C2168      C3033   1.402       .  A
C2168      H2175   1.083       .  S
C2169      C3032   1.401       .  A
C2169      C2170   1.397       .  A
C2170      H2176   1.085       .  S
C2177      C3042   1.402       .  A
C2177      C2182   1.400       .  A
C2178      C3041   1.402       .  A
C2178      C2179   1.395       .  A
C2178      H2187   1.083       .  S
C2179      C2180   1.402       .  A
C2179      H2188   1.083       .  S
C2180      C2186   1.404       .  A
C2180      C3045   1.417   1_545  A
C2181      C3044   1.417       .  A
C2181      C2183   1.399       .  A
C2181      C2182   1.402       .  A
C2182      H2189   1.085       .  S
C2183      C2184   1.395       .  A
C2183      H2190   1.084       .  S
C2184      C3049   1.407       .  A
C2184      H2191   1.083       .  S
C2185      C3048   1.407   1_545  A
C2185      C2186   1.403       .  A
C2186      H2192   1.083       .  S
C2193      C2194   1.404       .  A
C2193      C3062   1.402       .  A
C2194      C2195   1.399       .  A
C2194      H2203   1.083       .  S
C2195      C2196   1.403       .  A
C2195      H2204   1.083       .  S
C2196      C2202   1.409       .  A
C2196      C3061   1.416       .  A
C2197      C3060   1.416   1_545  A
C2197      C2199   1.400       .  A
C2197      C2198   1.406       .  A
C2198      C3057   1.403       .  A
C2198      H2205   1.084       .  S
C2199      C2200   1.397       .  A
C2199      H2206   1.084       .  S
C2200      C2201   1.407       .  A
C2200      H2207   1.083       .  S
C2201      C3066   1.407   1_545  A
C2202      C3065   1.407       .  A
C2202      H2208   1.083       .  S
C2209      C2210   1.402       .  A
C2210      C2211   1.399       .  A
C2210      H2219   1.083       .  S
C2211      C2212   1.404       .  A
C2211      H2220   1.083       .  S
C2212      C2218   1.406       .  A
C2213      C2215   1.399   1_455  A
C2213      C2214   1.401       .  A
C2214      H2221   1.085   1_455  S
C2215      C2216   1.394       .  A
C2215      H2222   1.084       .  S
C2216      C2217   1.407   1_655  A
C2216      H2223   1.082       .  S
C2218      H2224   1.084       .  S
C2225      C2226   1.402       .  A
C2226      C2227   1.397       .  A
C2226      H2235   1.083       .  S
C2227      C2228   1.404       .  A
C2227      H2236   1.084       .  S
C2228      C2234   1.402       .  A
C2229      C2231   1.405       .  A
C2229      C2230   1.405       .  A
C2230      H2237   1.084       .  S
C2231      C2232   1.401       .  A
C2231      H2238   1.083       .  S
C2232      H2239   1.083       .  S
C2233      C2234   1.407       .  A
C2234      H2240   1.083       .  S
C2241      C2242   1.404       .  A
C2241      C2246   1.402       .  A
C2242      C2243   1.402       .  A
C2242      H2251   1.083       .  S
C2243      C2244   1.406       .  A
C2243      H2252   1.084       .  S
C2244      C2250   1.412       .  A
C2244      C2245   1.413       .  A
C2245      C2247   1.398       .  A
C2245      C2246   1.407       .  A
C2246      H2253   1.084       .  S
C2247      C2248   1.396       .  A
C2247      H2254   1.083       .  S
C2248      C2249   1.415       .  A
C2248      H2255   1.083       .  S
C2249      C2250   1.420       .  A
C2250      H2256   1.080       .  S
C2257      C2258   1.404       .  A
C2257      C2262   1.406       .  A
C2258      C2259   1.401       .  A
C2258      H2267   1.083       .  S
C2259      C2260   1.405       .  A
C2259      H2268   1.084       .  S
C2260      C2266   1.410       .  A
C2260      C2261   1.412       .  A
C2261      C2263   1.399       .  A
C2261      C2262   1.408       .  A
C2262      H2269   1.084       .  S
C2263      C2264   1.397       .  A
C2263      H2270   1.084       .  S
C2264      C2265   1.415       .  A
C2264      H2271   1.083       .  S
C2265      C2266   1.419       .  A
C2266      H2272   1.079       .  S
C2273      C2274   1.406       .  A
C2273      C2278   1.406       .  A
C2274      C2275   1.397       .  A
C2274      H2283   1.083       .  S
C2275      C2276   1.401       .  A
C2275      H2284   1.084       .  S
C2276      C2282   1.404       .  A
C2276      C2277   1.415       .  A
C2277      C2279   1.403       .  A
C2277      C2278   1.405       .  A
C2278      H2285   1.083       .  S
C2279      C2280   1.398       .  A
C2279      H2286   1.083       .  S
C2280      C2281   1.402       .  A
C2280      H2287   1.083       .  S
C2281      C2282   1.404       .  A
C2282      H2288   1.084       .  S
C2289      C2290   1.402       .  A
C2289      C2294   1.405       .  A
C2290      C2291   1.398       .  A
C2290      H2299   1.083       .  S
C2291      C2292   1.403       .  A
C2291      H2300   1.084       .  S
C2292      C2298   1.403       .  A
C2292      C2293   1.414       .  A
C2293      C2295   1.402       .  A
C2293      C2294   1.402       .  A
C2294      H2301   1.085       .  S
C2295      C2296   1.397       .  A
C2295      H2302   1.084       .  S
C2296      C2297   1.404       .  A
C2296      H2303   1.083       .  S
C2297      C2298   1.404       .  A
C2298      H2304   1.084       .  S
C2305      C2306   1.403       .  A
C2305      C2310   1.402       .  A
C2306      C2307   1.401       .  A
C2306      H2315   1.083       .  S
C2307      C2308   1.405       .  A
C2307      H2316   1.083       .  S
C2308      C2314   1.410       .  A
C2308      C2309   1.415       .  A
C2309      C2311   1.399       .  A
C2309      C2310   1.403       .  A
C2310      H2317   1.085       .  S
C2311      C2312   1.395       .  A
C2311      H2318   1.084       .  S
C2312      C2313   1.406       .  A
C2312      H2319   1.083       .  S
C2313      C2314   1.408       .  A
C2314      H2320   1.084       .  S
C2321      C2322   1.406       .  A
C2321      C2326   1.407       .  A
C2322      C2323   1.395       .  A
C2322      H2331   1.083       .  S
C2323      C2324   1.400       .  A
C2323      H2332   1.084       .  S
C2324      C2330   1.402       .  A
C2324      C2325   1.415       .  A
C2325      C2327   1.404       .  A
C2325      C2326   1.406       .  A
C2326      H2333   1.083       .  S
C2327      C2328   1.399       .  A
C2327      H2334   1.084       .  S
C2328      C2329   1.402       .  A
C2328      H2335   1.083       .  S
C2329      C2330   1.401       .  A
C2330      H2336   1.084       .  S
C2337      C2342   1.401   1_455  A
C2338      C2339   1.408       .  A
C2338      H2347   1.083       .  S
C2339      C2340   1.407       .  A
C2339      H2348   1.083       .  S
C2340      C2346   1.419       .  A
C2341      C2343   1.391       .  A
C2341      C2342   1.404       .  A
C2342      H2349   1.084       .  S
C2343      C2344   1.389       .  A
C2343      H2350   1.084       .  S
C2344      H2351   1.079       .  S
C2345      C2346   1.420       .  A
C2346      H2352   1.084       .  S
C2353      C2354   1.403       .  A
C2354      C2355   1.401       .  A
C2354      H2363   1.083       .  S
C2355      C2356   1.405   1_455  A
C2355      H2364   1.083       .  S
C2356      C2362   1.412       .  A
C2357      C2359   1.391       .  A
C2357      C2358   1.400       .  A
C2358      H2365   1.085       .  S
C2359      C2360   1.386       .  A
C2359      H2366   1.084       .  S
C2360      C2361   1.420       .  A
C2360      H2367   1.083       .  S
C2362      H2368   1.080       .  S
C2369      C2370   1.423       .  A
C2369      C2374   1.415       .  A
C2370      C2371   1.389       .  A
C2370      H2379   1.078       .  S
C2371      C2372   1.391       .  A
C2371      H2380   1.084       .  S
C2372      C2378   1.403       .  A
C2372      C2373   1.413       .  A
C2373      C2375   1.404       .  A
C2373      C2374   1.412       .  A
C2374      H2381   1.084       .  S
C2375      C2376   1.402       .  A
C2375      H2382   1.083       .  S
C2376      C2377   1.406       .  A
C2376      H2383   1.083       .  S
C2377      C2378   1.399       .  A
C2378      H2384   1.085       .  S
C2385      C2386   1.418       .  A
C2385      C2390   1.413       .  A
C2386      C2387   1.388       .  A
C2386      H2395   1.083       .  S
C2387      C2388   1.393       .  A
C2387      H2396   1.084       .  S
C2388      C2394   1.402       .  A
C2388      C2389   1.416       .  A
C2389      C2391   1.404       .  A
C2389      C2390   1.411       .  A
C2390      H2397   1.080       .  S
C2391      C2392   1.401       .  A
C2391      H2398   1.083       .  S
C2392      C2393   1.403       .  A
C2392      H2399   1.083       .  S
C2393      C2394   1.396       .  A
C2394      H2400   1.085       .  S
C2401      C3266   1.417   1_565  A
C2401      C2406   1.417   1_565  A
C2402      C3265   1.417       .  A
C2402      C2403   1.397       .  A
C2402      H2411   1.083       .  S
C2403      C2404   1.398       .  A
C2403      H2412   1.084       .  S
C2404      C2410   1.411       .  A
C2404      C3269   1.413       .  A
C2405      C3268   1.414       .  A
C2405      C2407   1.405       .  A
C2405      C2406   1.411       .  A
C2406      H2413   1.080       .  S
C2407      C2408   1.401       .  A
C2407      H2414   1.083       .  S
C2408      C2409   1.403       .  A
C2408      H2415   1.083       .  S
C2409      C3274   1.402       .  A
C2410      C3273   1.404       .  A
C2410      H2416   1.084       .  S
C2417      C3282   1.415       .  A
C2417      C2422   1.420   1_565  A
C2418      C3281   1.416       .  A
C2418      C2419   1.405       .  A
C2418      H2427   1.083       .  S
C2419      C2420   1.404       .  A
C2419      H2428   1.083       .  S
C2420      C2426   1.416       .  A
C2420      C3285   1.410       .  A
C2421      C3284   1.410   1_545  A
C2421      C2423   1.404       .  A
C2421      C2422   1.407       .  A
C2422      H2429   1.078       .  S
C2423      C2424   1.398       .  A
C2423      H2430   1.084       .  S
C2424      C2425   1.403       .  A
C2424      H2431   1.083       .  S
C2425      C3290   1.412   1_545  A
C2426      C3289   1.413       .  A
C2426      H2432   1.084       .  S
C2433      C2434   1.416       .  A
C2433      C2438   1.419       .  A
C2434      C2435   1.399       .  A
C2434      H2443   1.077   1_545  S
C2435      C2436   1.399       .  A
C2435      H2444   1.084       .  S
C2436      C2442   1.408       .  A
C2436      C2437   1.411       .  A
C2437      C2439   1.404       .  A
C2437      C2438   1.407       .  A
C2438      H2445   1.084       .  S
C2439      C2440   1.401       .  A
C2439      H2446   1.084       .  S
C2440      C2441   1.402       .  A
C2440      H2447   1.083       .  S
C2441      C2442   1.404       .  A
C2442      H2448   1.084       .  S
C2449      C2450   1.408       .  A
C2449      C2454   1.402       .  A
C2450      C2451   1.402       .  A
C2450      H2459   1.082       .  S
C2451      C2452   1.403       .  A
C2451      H2460   1.084       .  S
C2452      C2458   1.412       .  A
C2452      C2453   1.412       .  A
C2453      C2455   1.395       .  A
C2453      C2454   1.407       .  A
C2454      H2461   1.084       .  S
C2455      C2456   1.395       .  A
C2455      H2462   1.084       .  S
C2456      C2457   1.419       .  A
C2456      H2463   1.078       .  S
C2457      C2628   1.567       .  S
C2457      C2458   1.418       .  A
C2458      H2464   1.084       .  S
C2465      C2466   1.403       .  A
C2465      C2470   1.402       .  A
C2466      C2467   1.399       .  A
C2466      H2475   1.083       .  S
C2467      C2468   1.404       .  A
C2467      H2476   1.084       .  S
C2468      C2474   1.406       .  A
C2468      C2469   1.415       .  A
C2469      C2471   1.401       .  A
C2469      C2470   1.403       .  A
C2470      H2477   1.084       .  S
C2471      C2472   1.396       .  A
C2471      H2478   1.084       .  S
C2472      C2473   1.405       .  A
C2472      H2479   1.083       .  S
C2473      C2474   1.407       .  A
C2474      H2480   1.083       .  S
C2481      C2482   1.402       .  A
C2481      C2486   1.401       .  A
C2482      C2483   1.401       .  A
C2482      H2491   1.083       .  S
C2483      C2484   1.405       .  A
C2483      H2492   1.083       .  S
C2484      C2490   1.407       .  A
C2484      C2485   1.415       .  A
C2485      C2487   1.399       .  A
C2485      C2486   1.399       .  A
C2486      H2493   1.085       .  S
C2487      C2488   1.393       .  A
C2487      H2494   1.084       .  S
C2488      C2489   1.405       .  A
C2488      H2495   1.083       .  S
C2489      C2490   1.407       .  A
C2490      H2496   1.083       .  S
C2497      C2498   1.405       .  A
C2497      C2502   1.403       .  A
C2498      C2499   1.392       .  A
C2498      H2507   1.084       .  S
C2499      C2500   1.399       .  A
C2499      H2508   1.084       .  S
C2500      C2506   1.400       .  A
C2500      C2501   1.417       .  A
C2501      C2503   1.403       .  A
C2501      C2502   1.405       .  A
C2502      H2509   1.084       .  S
C2503      C2504   1.398       .  A
C2503      H2510   1.083       .  S
C2504      C2505   1.402       .  A
C2504      H2511   1.083       .  S
C2505      C2506   1.399       .  A
C2506      H2512   1.085       .  S
C2513      C2514   1.403       .  A
C2513      C2518   1.402       .  A
C2514      C2515   1.399       .  A
C2514      H2523   1.083       .  S
C2515      C2516   1.403       .  A
C2515      H2524   1.083       .  S
C2516      C2522   1.408       .  A
C2516      C2517   1.416       .  A
C2517      C2519   1.398       .  A
C2517      C2518   1.402       .  A
C2518      H2525   1.085       .  S
C2519      C2520   1.393       .  A
C2519      H2526   1.084       .  S
C2520      C2521   1.407       .  A
C2520      H2527   1.083       .  S
C2521      C2522   1.405       .  A
C2522      H2528   1.083       .  S
C2529      C2593   1.560       .  S
C2529      C3394   1.412       .  A
C2529      C2534   1.420   1_565  A
C2530      C3393   1.413       .  A
C2530      C2531   1.406       .  A
C2530      H2539   1.083       .  S
C2531      C2532   1.405       .  A
C2531      H2540   1.083       .  S
C2532      C2538   1.412       .  A
C2532      C3397   1.409       .  A
C2533      C3396   1.409   1_545  A
C2533      C2535   1.403       .  A
C2533      C2534   1.399       .  A
C2534      H2541   1.080       .  S
C2535      C2536   1.395       .  A
C2535      H2542   1.084       .  S
C2536      C2537   1.402       .  A
C2536      H2543   1.083       .  S
C2537      C3402   1.409   1_545  A
C2538      C3401   1.412       .  A
C2538      H2544   1.084       .  S
C2545      C2593   1.555       .  S
C2545      C3410   1.418       .  A
C2545      C2550   1.413       .  A
C2546      C3409   1.418       .  A
C2546      C2547   1.389       .  A
C2546      H2555   1.083       .  S
C2547      C2548   1.393       .  A
C2547      H2556   1.084       .  S
C2548      C2554   1.401       .  A
C2548      C3413   1.416       .  A
C2549      C3412   1.415   1_565  A
C2549      C2551   1.404       .  A
C2549      C2550   1.408       .  A
C2550      H2557   1.079       .  S
C2551      C2552   1.399       .  A
C2551      H2558   1.083       .  S
C2552      C2553   1.403   1_565  A
C2552      H2559   1.083       .  S
C2553      C3418   1.395       .  A
C2554      C3417   1.396       .  A
C2554      H2560   1.085       .  S
C2561      C2593   1.554   1_545  S
C2561      C2562   1.419       .  A
C2561      C2566   1.413       .  A
C2562      C2563   1.386       .  A
C2562      H2571   1.084       .  S
C2563      C2564   1.392       .  A
C2563      H2572   1.084       .  S
C2564      C2570   1.401       .  A
C2564      C2565   1.416       .  A
C2565      C2567   1.404       .  A
C2565      C2566   1.412       .  A
C2566      H2573   1.081       .  S
C2567      C2568   1.402       .  A
C2567      H2574   1.083       .  S
C2568      C2569   1.403       .  A
C2568      H2575   1.083       .  S
C2569      C2570   1.395       .  A
C2570      H2576   1.085       .  S
C2577      C2578   1.422       .  A
C2577      C2582   1.417       .  A
C2578      C2579   1.391       .  A
C2578      H2587   1.080       .  S
C2579      C2580   1.392       .  A
C2579      H2588   1.084       .  S
C2580      C2586   1.406       .  A
C2580      C2581   1.414       .  A
C2581      C2583   1.405       .  A
C2581      C2582   1.417       .  A
C2582      H2589   1.084       .  S
C2583      C2584   1.405       .  A
C2583      H2590   1.083       .  S
C2584      C2585   1.408       .  A
C2584      H2591   1.083       .  S
C2585      C2586   1.401       .  A
C2586      H2592   1.084       .  S
C2593      C3441   1.565       .  S
N2594      C2599   1.353       .  A
N2594      C2598   1.352   1_556  A
N2594      H2626   1.037       .  S
N2595      C2603   1.353       .  A
N2596      C2601   1.352   1_554  A
N2596      C2600   1.355       .  A
N2596      H2627   1.034       .  S
N2597      C2605   1.352       .  A
C2598      C2606   1.387       .  A
C2598      C2614   1.414       .  A
C2599      C2615   1.413       .  A
C2599      C2607   1.386       .  A
C2600      C2608   1.388       .  A
C2600      C2617   1.420       .  A
C2601      C2616   1.415       .  A
C2601      C2609   1.386       .  A
C2602      C2614   1.414       .  A
C2602      C2610   1.386       .  A
C2603      C2617   1.419       .  A
C2603      C2611   1.388       .  A
C2604      C2612   1.385       .  A
C2604      C2615   1.415       .  A
C2605      C2613   1.388       .  A
C2605      C2616   1.418       .  A
C2606      C2607   1.376   1_554  A
C2606      H2618   1.082       .  S
C2607      H2619   1.082       .  S
C2608      C2609   1.377   1_554  A
C2608      H2620   1.082       .  S
C2609      H2621   1.082       .  S
C2610      H2622   1.082       .  S
C2611      H2623   1.081       .  S
C2612      H2624   1.082       .  S
C2613      H2625   1.082       .  S
C2614      C3345   1.480       .  S
C2615      C3377   1.487       .  S
C2616      C3369   1.481       .  S
C2617      C3329   1.491       .  S
C2628      C3265   1.565       .  S
C2628      C3281   1.568       .  S
C2628      C3297   1.567       .  S
C2629      C3209   1.570       .  S
C2629      C3225   1.560       .  S
C2629      C3233   1.565       .  S
N2630      C2635   1.353       .  A
N2630      C2634   1.352   1_554  A
N2630      H2662   1.038       .  S
N2631      C2639   1.353       .  A
N2632      C2637   1.354       .  A
N2632      C2636   1.352   1_554  A
N2632      H2663   1.038       .  S
N2633      C2641   1.352       .  A
C2634      C2642   1.388       .  A
C2634      C2650   1.416       .  A
C2635      C2651   1.414       .  A
C2635      C2643   1.386       .  A
C2636      C2644   1.387       .  A
C2636      C2653   1.413       .  A
C2637      C2652   1.416       .  A
C2637      C2645   1.387       .  A
C2638      C2650   1.418       .  A
C2638      C2646   1.388       .  A
C2639      C2653   1.414       .  A
C2639      C2647   1.386       .  A
C2640      C2648   1.387       .  A
C2640      C2651   1.413       .  A
C2641      C2649   1.385       .  A
C2641      C2652   1.414       .  A
C2642      C2643   1.378   1_556  A
C2642      H2654   1.082       .  S
C2643      H2655   1.082       .  S
C2644      C2645   1.374   1_556  A
C2644      H2656   1.082       .  S
C2645      H2657   1.082       .  S
C2646      H2658   1.082       .  S
C2647      H2659   1.082       .  S
C2648      H2660   1.082       .  S
C2649      H2661   1.082       .  S
C2650      C3169   1.483       .  S
C2651      C3145   1.482       .  S
C2652      C3153   1.488       .  S
C2653      C3193   1.481       .  S
C2664      N2682   1.345       .  A
C2664      C2701   1.470       .  S
C2664      C3385   1.484       .  S
N2665      N2682   1.320       .  A
N2665      N2687   1.319       .  A
N2665     Co2702   2.071       .  S
C2666      N2691   1.339       .  A
C2666      H2711   1.082       .  S
C2666      C2704   1.458       .  S
H2667      C2708   1.081       .  S
C2668      N2692   1.347       .  A
C2668      H2697   1.081       .  S
C2668      C2672   1.466       .  S
Co2669     N2687   2.109       .  S
Co2669     N2677   2.073       .  S
Co2669     N2709   2.087       .  S
Co2669     N2685   2.120       .  S
Co2669    Cl2713   2.461       .  S
N2670      C2708   1.345       .  A
N2670      N2677   1.318       .  A
N2670     Co2671   2.095       .  S
Co2671     N2674   2.068       .  S
Co2671     N2691   2.079       .  S
Co2671     N2678   2.103       .  S
Co2671    Cl2713   2.446       .  S
C2672      N2710   1.345       .  A
C2672      C3361   1.477       .  S
N2673      N2680   1.318       .  A
N2673      N2703   1.321       .  A
N2673     Co2706   2.069       .  S
N2674      N2692   1.319       .  A
N2674      N2710   1.320       .  A
N2675      C2704   1.358       .  A
N2675      N2685   1.331       .  A
H2676      C2701   1.081       .  S
N2677      N2698   1.322       .  A
N2678      N2696   1.322       .  A
N2678      N2683   1.327       .  A
C2679      N2683   1.354       .  A
C2679      C2707   1.458       .  S
C2679      C3241   1.480       .  S
N2680      C2695   1.346       .  A
N2680     Co2702   2.095       .  S
C2681      N2709   1.342       .  A
C2681      H2715   1.082       .  S
C2681      C2684   1.460       .  S
C2684      N2705   1.350       .  A
C2684      C3257   1.470       .  S
N2685      N2691   1.322       .  A
N2686      C2712   1.341       .  A
N2686      N2688   1.321       .  A
N2686     Co2702   2.086       .  S
N2687      C2701   1.350       .  A
N2688      N2716   1.329       .  A
N2688     Co2706   2.110       .  S
H2689      C2712   1.082       .  S
H2690      C2707   1.081       .  S
N2692     Co2706   2.098       .  S
N2693      N2705   1.324       .  A
N2693      N2709   1.321       .  A
N2693     Co2702   2.089       .  S
C2694      N2698   1.348       .  A
C2694      C2708   1.465       .  S
C2694      C3185   1.479       .  S
C2695      H2699   1.081       .  S
C2695      C2714   1.464       .  S
N2696      C2707   1.340       .  A
N2696     Co2706   2.080       .  S
C2700      N2716   1.355       .  A
C2700      C2712   1.457       .  S
C2700      C3305   1.478       .  S
Co2702    Cl2713   2.447       .  S
N2703      C2714   1.347       .  A
C2704      C3313   1.488       .  S
Co2706    Cl2713   2.462       .  S
C2714      C3177   1.479       .  S
C2717      N2735   1.350       .  A
C2717      C2754   1.468       .  S
C2717      C3449   1.487       .  S
N2718      N2735   1.326       .  A
N2718      N2740   1.322       .  A
N2718     Co2755   2.087       .  S
C2719      N2744   1.340       .  A
C2719      H2764   1.081       .  S
C2719      C2757   1.460       .  S
H2720      C2761   1.082       .  S
C2721      N2745   1.337       .  A
C2721      H2750   1.082       .  S
C2721      C2725   1.456       .  S
Co2722     N2740   2.108       .  S
Co2722     N2730   2.101       .  S
Co2722     N2762   2.088       .  S
Co2722     N2738   2.096       .  S
Co2722    Cl2766   2.448       .  S
N2723      C2761   1.343       .  A
N2723      N2730   1.322       .  A
N2723     Co2724   2.092       .  S
Co2724     N2727   2.089       .  S
Co2724     N2744   2.079       .  S
Co2724     N2731   2.086       .  S
Co2724    Cl2766   2.459       .  S
C2725      N2763   1.352       .  A
C2725      C3433   1.465       .  S
N2726      N2733   1.321       .  A
N2726      N2756   1.326       .  A
N2726     Co2759   2.088       .  S
N2727      N2745   1.319       .  A
N2727      N2763   1.325       .  A
N2728      C2757   1.353       .  A
N2728      N2738   1.326       .  A
H2729      C2754   1.082       .  S
N2730      N2751   1.326       .  A
N2731      N2749   1.319       .  A
N2731      N2736   1.324       .  A
C2732      N2736   1.350       .  A
C2732      C2760   1.461       .  S
C2732      C3137   1.480       .  S
N2733      C2748   1.341       .  A
N2733     Co2755   2.092       .  S
C2734      N2762   1.340       .  A
C2734      H2768   1.081       .  S
C2734      C2737   1.458       .  S
C2737      N2758   1.350       .  A
C2737      C3161   1.473       .  S
N2738      N2744   1.319       .  A
N2739      C2765   1.345       .  A
N2739      N2741   1.318       .  A
N2739     Co2755   2.088       .  S
N2740      C2754   1.345       .  A
N2741      N2769   1.321       .  A
N2741     Co2759   2.074       .  S
H2742      C2765   1.081       .  S
H2743      C2760   1.081       .  S
N2745     Co2759   2.074       .  S
N2746      N2758   1.325       .  A
N2746      N2762   1.320       .  A
N2746     Co2755   2.082       .  S
C2747      N2751   1.353       .  A
C2747      C2761   1.462       .  S
C2747      C3105   1.477       .  S
C2748      H2752   1.081       .  S
C2748      C2767   1.463       .  S
N2749      C2760   1.342       .  A
N2749     Co2759   2.088       .  S
C2753      N2769   1.347       .  A
C2753      C2765   1.464       .  S
C2753      C3353   1.475       .  S
Co2755    Cl2766   2.462       .  S
N2756      C2767   1.351       .  A
C2757      C3337   1.482       .  S
Co2759    Cl2766   2.447       .  S
C2767      C3121   1.480       .  S
C2770      N2788   1.349   1_455  A
C2770      C3217   1.471   1_455  S
N2771      N2788   1.324       .  A
N2771     Co2808   2.093       .  S
C2772      N2797   1.346       .  A
C2772      H2817   1.081       .  S
C2772      C2810   1.465       .  S
H2773      C2814   1.082       .  S
C2774      N2798   1.342       .  A
C2774      H2803   1.082       .  S
C2774      C2778   1.465   1_655  S
Co2775     N2793   2.089       .  S
Co2775     N2783   2.096       .  S
Co2775     N2815   2.078       .  S
Co2775     N2791   2.070       .  S
N2776      C2814   1.345       .  A
N2776     Co2777   2.112       .  S
Co2777     N2780   2.100       .  S
Co2777     N2797   2.094       .  S
Co2777     N2784   2.098       .  S
C2778      C3201   1.488       .  S
N2779      N2809   1.327       .  A
N2779     Co2812   2.091       .  S
N2780      N2816   1.328       .  A
N2781      N2791   1.320       .  A
H2782      C2807   1.082       .  S
N2783      N2804   1.329       .  A
N2784      N2789   1.328       .  A
C2785      C2813   1.455   1_455  S
C2785      C3081   1.481   1_455  S
N2786      C2801   1.343       .  A
N2786     Co2808   2.103       .  S
C2787      N2815   1.338       .  A
C2787      H2821   1.081       .  S
C2790      N2811   1.355   1_455  A
N2792      C2818   1.347       .  A
N2792     Co2808   2.094       .  S
N2793      C2807   1.342       .  A
N2794      N2822   1.322       .  A
N2794     Co2812   2.088       .  S
H2795      C2818   1.081       .  S
H2796      C2813   1.080       .  S
N2798     Co2812   2.097       .  S
N2799      N2811   1.328       .  A
N2799     Co2808   2.098       .  S
C2800      C2814   1.468       .  S
C2800      C3289   1.490       .  S
C2801      H2805   1.082       .  S
N2802      C2813   1.336       .  A
N2802     Co2812   2.075       .  S
C2806      N2822   1.348       .  A
C2806      C3065   1.483       .  S
N2809      C2820   1.353       .  A
C2810      C3049   1.476       .  S
Co2812    Cl2819   2.447   1_655  S
C2820      C3273   1.480       .  S
C2823      N2841   1.349       .  A
C2823      C3417   1.462       .  S
N2824      N2841   1.322       .  A
N2824     Co2861   2.077       .  S
C2825      N2850   1.339       .  A
C2825      H2870   1.080       .  S
C2825      C2863   1.459       .  S
H2826      C2867   1.081       .  S
C2827      N2851   1.341       .  A
C2827      H2856   1.081       .  S
C2827      C2831   1.463       .  S
Co2828     N2846   2.083       .  S
Co2828     N2836   2.092       .  S
Co2828     N2868   2.078       .  S
Co2828     N2844   2.093       .  S
N2829      C2867   1.343       .  A
N2829     Co2830   2.093       .  S
Co2830     N2833   2.085       .  S
Co2830     N2850   2.082       .  S
Co2830     N2837   2.072   1_565  S
C2831      C3401   1.480       .  S
N2832      N2862   1.326       .  A
N2832     Co2865   2.091       .  S
N2833      N2869   1.325       .  A
N2834      N2844   1.328       .  A
H2835      C2860   1.082       .  S
N2836      N2857   1.327       .  A
N2837      N2842   1.320   1_545  A
C2838      C2866   1.460       .  S
C2838      C3025   1.466       .  S
N2839      C2854   1.343       .  A
N2839     Co2861   2.091       .  S
C2840      N2868   1.341       .  A
C2840      H2874   1.081       .  S
C2843      N2864   1.350       .  A
C2843      C3009   1.475       .  S
N2845      C2871   1.338       .  A
N2845     Co2861   2.077       .  S
N2846      C2860   1.338       .  A
N2847      N2875   1.329       .  A
N2847     Co2865   2.098       .  S
H2848      C2871   1.081       .  S
H2849      C2866   1.081       .  S
N2851     Co2865   2.099       .  S
N2852      N2864   1.323       .  A
N2852     Co2861   2.085       .  S
C2853      C2867   1.465       .  S
C2853      C2953   1.485       .  S
C2854      H2858   1.082       .  S
N2855      C2866   1.342       .  A
N2855     Co2865   2.078       .  S
C2859      N2875   1.354   1_455  A
C2859      C2977   1.481       .  S
N2862      C2873   1.350   1_655  A
C2863      C3001   1.483       .  S
Co2865    Cl2872   2.454       .  S
C2873      C2969   1.472       .  S
N2876      C2881   1.352       .  A
N2876      C2880   1.353       .  A
N2876      H2908   1.038       .  S
N2877      C2884   1.353       .  A
N2877      C2885   1.352       .  A
N2878      C2883   1.353       .  A
N2878      C2882   1.353       .  A
N2878      H2909   1.038       .  S
N2879      C2886   1.353       .  A
N2879      C2887   1.354       .  A
C2880      C2888   1.387       .  A
C2880      C2896   1.416       .  A
C2881      C2897   1.416       .  A
C2881      C2889   1.388       .  A
C2882      C2890   1.387       .  A
C2882      C2899   1.417       .  A
C2883      C2898   1.417       .  A
C2883      C2891   1.387       .  A
C2884      C2896   1.417       .  A
C2884      C2892   1.387       .  A
C2885      C2899   1.416       .  A
C2885      C2893   1.387       .  A
C2886      C2894   1.387       .  A
C2886      C2897   1.417       .  A
C2887      C2895   1.387       .  A
C2887      C2898   1.418       .  A
C2888      C2889   1.377       .  A
C2888      H2900   1.082       .  S
C2889      H2901   1.082       .  S
C2890      C2891   1.377       .  A
C2890      H2902   1.082       .  S
C2891      H2903   1.082       .  S
C2892      C2893   1.370       .  A
C2892      H2904   1.082       .  S
C2893      H2905   1.082       .  S
C2894      C2895   1.370       .  A
C2894      H2906   1.082       .  S
C2895      H2907   1.082       .  S
C2896      C2985   1.486       .  S
C2897      C3073   1.483       .  S
C2898      C3089   1.487       .  S
C2899      C2993   1.485       .  S
N2910      C2915   1.351       .  A
N2910      C2914   1.351       .  A
N2910      H2942   1.040   1_545  S
N2911      C2918   1.351       .  A
N2911      C2919   1.349       .  A
N2912      C2917   1.352       .  A
N2912      C2916   1.350       .  A
N2912      H2943   1.038   1_545  S
N2913      C2920   1.349       .  A
N2913      C2921   1.352       .  A
C2914      C2922   1.385       .  A
C2914      C2930   1.409       .  A
C2915      C2931   1.412       .  A
C2915      C2923   1.388       .  A
C2916      C2924   1.388       .  A
C2916      C2933   1.412       .  A
C2917      C2932   1.412       .  A
C2917      C2925   1.386       .  A
C2918      C2930   1.411       .  A
C2918      C2926   1.386   1_545  A
C2919      C2933   1.413       .  A
C2919      C2927   1.388       .  A
C2920      C2928   1.387   1_545  A
C2920      C2931   1.411       .  A
C2921      C2929   1.386   1_545  A
C2921      C2932   1.412       .  A
C2922      C2923   1.377       .  A
C2922      H2934   1.082       .  S
C2923      H2935   1.082       .  S
C2924      C2925   1.379       .  A
C2924      H2936   1.082       .  S
C2925      H2937   1.082       .  S
C2926      C2927   1.371   1_565  A
C2926      H2938   1.082       .  S
C2927      H2939   1.082       .  S
C2928      C2929   1.372       .  A
C2928      H2940   1.082       .  S
C2929      H2941   1.082       .  S
C2930      C3017   1.480   1_545  S
C2931      C3041   1.476       .  S
C2932      C3057   1.484       .  S
C2933      C3033   1.474       .  S
C2944      C2945   1.565       .  S
C2944      C2961   1.563       .  S
C2944      C3113   1.561       .  S
C2945      C2946   1.417       .  A
C2946      C2947   1.399       .  A
C2946      H2955   1.079       .  S
C2947      C2948   1.400       .  A
C2947      H2956   1.084       .  S
C2948      C2954   1.409       .  A
C2949      C2951   1.403       .  A
C2949      C2950   1.407       .  A
C2950      H2957   1.084       .  S
C2951      C2952   1.400       .  A
C2951      H2958   1.083       .  S
C2952      C2953   1.405       .  A
C2952      H2959   1.082       .  S
C2954      H2960   1.084       .  S
C2961      C2966   1.418       .  A
C2962      C2963   1.396   1_455  A
C2962      H2971   1.077       .  S
C2963      C2964   1.397       .  A
C2963      H2972   1.084       .  S
C2964      C2970   1.406       .  A
C2965      C2967   1.404       .  A
C2965      C2966   1.407       .  A
C2966      H2973   1.084       .  S
C2967      C2968   1.400       .  A
C2967      H2974   1.083       .  S
C2968      H2975   1.083       .  S
C2969      C2970   1.402   1_455  A
C2970      H2976   1.085       .  S
C2977      C2982   1.407   1_455  A
C2978      C2979   1.395       .  A
C2978      H2987   1.082       .  S
C2979      C2980   1.399       .  A
C2979      H2988   1.084       .  S
C2980      C2986   1.402       .  A
C2981      C2983   1.405       .  A
C2981      C2982   1.409       .  A
C2982      H2989   1.084       .  S
C2983      C2984   1.401       .  A
C2983      H2990   1.084       .  S
C2984      H2991   1.083       .  S
C2985      C2986   1.401       .  A
C2986      H2992   1.085       .  S
C2993      C2994   1.403       .  A
C2994      C2995   1.399       .  A
C2994      H3003   1.083       .  S
C2995      C2996   1.403       .  A
C2995      H3004   1.083       .  S
C2996      C3002   1.407       .  A
C2997      C2999   1.400       .  A
C2997      C2998   1.405       .  A
C2998      H3005   1.084       .  S
C2999      C3000   1.397       .  A
C2999      H3006   1.084       .  S
C3000      C3001   1.407       .  A
C3000      H3007   1.081       .  S
C3002      H3008   1.084       .  S
C3009      C3010   1.404       .  A
C3010      C3011   1.394       .  A
C3010      H3019   1.083       .  S
C3011      C3012   1.400       .  A
C3011      H3020   1.084       .  S
C3012      C3018   1.399       .  A
C3012      C3013   1.415       .  A
C3014      H3021   1.084       .  S
C3015      C3016   1.398       .  A
C3015      H3022   1.084       .  S
C3016      C3017   1.402       .  A
C3016      H3023   1.083       .  S
C3018      H3024   1.085       .  S
C3025      C3030   1.403       .  A
C3026      C3027   1.392       .  A
C3026      H3035   1.083       .  S
C3027      C3028   1.398   1_565  A
C3027      H3036   1.084       .  S
C3028      C3034   1.398       .  A
C3029      C3031   1.403       .  A
C3029      C3030   1.401       .  A
C3030      H3037   1.084       .  S
C3031      C3032   1.397       .  A
C3031      H3038   1.084       .  S
C3032      H3039   1.083       .  S
C3033      C3034   1.398       .  A
C3034      H3040   1.085   1_545  S
C3041      C3046   1.400   1_545  A
C3042      C3043   1.396       .  A
C3042      H3051   1.083       .  S
C3043      C3044   1.402       .  A
C3043      H3052   1.083       .  S
C3044      C3050   1.404       .  A
C3045      C3047   1.399       .  A
C3045      C3046   1.402       .  A
C3046      H3053   1.085       .  S
C3047      C3048   1.394       .  A
C3047      H3054   1.084       .  S
C3048      H3055   1.083       .  S
C3049      C3050   1.403       .  A
C3050      H3056   1.084       .  S
C3057      C3058   1.403   1_545  A
C3058      C3059   1.399       .  A
C3058      H3067   1.083       .  S
C3059      C3060   1.404       .  A
C3059      H3068   1.083       .  S
C3060      C3066   1.409       .  A
C3061      C3063   1.399       .  A
C3061      C3062   1.405       .  A
C3062      H3069   1.084       .  S
C3063      C3064   1.395       .  A
C3063      H3070   1.084       .  S
C3064      C3065   1.407       .  A
C3064      H3071   1.083       .  S
C3066      H3072   1.083       .  S
C3073      C3074   1.403       .  A
C3074      C3075   1.399       .  A
C3074      H3083   1.083       .  S
C3075      C3076   1.404       .  A
C3075      H3084   1.083       .  S
C3076      C3082   1.407       .  A
C3077      C3079   1.399       .  A
C3077      C3078   1.402       .  A
C3078      H3085   1.085       .  S
C3079      C3080   1.394       .  A
C3079      H3086   1.084       .  S
C3080      C3081   1.408       .  A
C3080      H3087   1.081       .  S
C3082      H3088   1.084       .  S
C3089      C3090   1.403       .  A
C3090      C3091   1.399       .  A
C3090      H3099   1.083       .  S
C3091      C3092   1.404       .  A
C3091      H3100   1.084       .  S
C3092      C3098   1.405       .  A
C3093      C3095   1.404       .  A
C3093      C3094   1.406       .  A
C3094      H3101   1.084       .  S
C3095      C3096   1.400       .  A
C3095      H3102   1.083       .  S
C3096      H3103   1.083       .  S
C3097      C3098   1.409       .  A
C3098      H3104   1.082       .  S
C3105      C3106   1.404       .  A
C3105      C3110   1.402       .  A
C3106      C3107   1.402       .  A
C3106      H3115   1.083       .  S
C3107      C3108   1.406       .  A
C3107      H3116   1.084       .  S
C3108      C3114   1.412       .  A
C3108      C3109   1.413       .  A
C3109      C3111   1.398       .  A
C3109      C3110   1.408       .  A
C3110      H3117   1.084       .  S
C3111      C3112   1.396       .  A
C3111      H3118   1.083       .  S
C3112      C3113   1.415       .  A
C3112      H3119   1.083       .  S
C3113      C3114   1.420       .  A
C3114      H3120   1.081       .  S
C3121      C3122   1.404       .  A
C3121      C3126   1.406       .  A
C3122      C3123   1.400       .  A
C3122      H3131   1.083       .  S
C3123      C3124   1.405       .  A
C3123      H3132   1.084       .  S
C3124      C3130   1.408       .  A
C3124      C3125   1.411       .  A
C3125      C3127   1.399       .  A
C3125      C3126   1.406       .  A
C3126      H3133   1.084       .  S
C3127      C3128   1.397       .  A
C3127      H3134   1.084       .  S
C3128      C3129   1.415       .  A
C3128      H3135   1.083       .  S
C3129      C3130   1.419       .  A
C3130      H3136   1.078       .  S
C3137      C3138   1.405       .  A
C3137      C3142   1.407       .  A
C3138      C3139   1.397       .  A
C3138      H3147   1.083       .  S
C3139      C3140   1.401       .  A
C3139      H3148   1.084       .  S
C3140      C3146   1.403       .  A
C3140      C3141   1.415       .  A
C3141      C3143   1.404       .  A
C3141      C3142   1.405       .  A
C3142      H3149   1.083       .  S
C3143      C3144   1.398       .  A
C3143      H3150   1.084       .  S
C3144      C3145   1.402       .  A
C3144      H3151   1.083       .  S
C3145      C3146   1.402       .  A
C3146      H3152   1.084       .  S
C3153      C3154   1.403       .  A
C3153      C3158   1.405       .  A
C3154      C3155   1.398       .  A
C3154      H3163   1.083       .  S
C3155      C3156   1.404       .  A
C3155      H3164   1.084       .  S
C3156      C3162   1.403       .  A
C3156      C3157   1.414       .  A
C3157      C3159   1.403       .  A
C3157      C3158   1.402       .  A
C3158      H3165   1.085       .  S
C3159      C3160   1.397       .  A
C3159      H3166   1.084       .  S
C3160      C3161   1.403       .  A
C3160      H3167   1.083       .  S
C3161      C3162   1.405       .  A
C3162      H3168   1.084       .  S
C3169      C3170   1.403       .  A
C3169      C3174   1.402       .  A
C3170      C3171   1.399       .  A
C3170      H3179   1.083       .  S
C3171      C3172   1.404       .  A
C3171      H3180   1.083       .  S
C3172      C3178   1.406       .  A
C3172      C3173   1.415       .  A
C3173      C3175   1.400       .  A
C3173      C3174   1.402       .  A
C3174      H3181   1.085       .  S
C3175      C3176   1.395       .  A
C3175      H3182   1.084       .  S
C3176      C3177   1.406       .  A
C3176      H3183   1.083       .  S
C3177      C3178   1.406       .  A
C3178      H3184   1.083       .  S
C3185      C3186   1.406       .  A
C3185      C3190   1.406       .  A
C3186      C3187   1.395       .  A
C3186      H3195   1.083       .  S
C3187      C3188   1.399       .  A
C3187      H3196   1.084       .  S
C3188      C3194   1.401       .  A
C3188      C3189   1.415       .  A
C3189      C3191   1.404       .  A
C3189      C3190   1.406       .  A
C3190      H3197   1.083       .  S
C3191      C3192   1.398       .  A
C3191      H3198   1.083       .  S
C3192      C3193   1.402       .  A
C3192      H3199   1.083       .  S
C3193      C3194   1.401       .  A
C3194      H3200   1.085       .  S
C3201      C3206   1.402   1_455  A
C3202      C3203   1.408       .  A
C3202      H3211   1.083       .  S
C3203      C3204   1.407       .  A
C3203      H3212   1.083       .  S
C3204      C3210   1.420       .  A
C3205      C3207   1.391       .  A
C3205      C3206   1.405       .  A
C3206      H3213   1.084       .  S
C3207      C3208   1.390       .  A
C3207      H3214   1.084       .  S
C3208      H3215   1.079       .  S
C3209      C3210   1.420       .  A
C3210      H3216   1.084       .  S
C3217      C3218   1.404   1_655  A
C3218      C3219   1.404   1_455  A
C3218      H3227   1.083       .  S
C3219      C3220   1.406       .  A
C3219      H3228   1.083       .  S
C3220      C3226   1.416       .  A
C3221      C3223   1.392       .  A
C3221      C3222   1.403       .  A
C3222      H3229   1.085       .  S
C3223      C3224   1.387       .  A
C3223      H3230   1.084       .  S
C3224      C3225   1.420       .  A
C3224      H3231   1.083       .  S
C3226      H3232   1.080       .  S
C3233      C3234   1.423       .  A
C3233      C3238   1.417       .  A
C3234      C3235   1.390       .  A
C3234      H3243   1.078       .  S
C3235      C3236   1.391       .  A
C3235      H3244   1.084       .  S
C3236      C3242   1.404       .  A
C3236      C3237   1.413       .  A
C3237      C3239   1.404       .  A
C3237      C3238   1.414       .  A
C3238      H3245   1.084       .  S
C3239      C3240   1.403       .  A
C3239      H3246   1.083       .  S
C3240      C3241   1.407       .  A
C3240      H3247   1.083       .  S
C3241      C3242   1.399       .  A
C3242      H3248   1.085       .  S
C3249      C3250   1.418       .  A
C3249      C3254   1.415       .  A
C3250      C3251   1.389       .  A
C3250      H3259   1.083       .  S
C3251      C3252   1.393       .  A
C3251      H3260   1.084       .  S
C3252      C3258   1.403       .  A
C3252      C3253   1.416       .  A
C3253      C3255   1.405       .  A
C3253      C3254   1.413       .  A
C3254      H3261   1.080       .  S
C3255      C3256   1.402       .  A
C3255      H3262   1.083       .  S
C3256      C3257   1.404       .  A
C3256      H3263   1.083       .  S
C3257      C3258   1.397       .  A
C3258      H3264   1.085       .  S
C3265      C3270   1.418       .  A
C3266      C3267   1.396       .  A
C3266      H3275   1.083   1_545  S
C3267      C3268   1.398       .  A
C3267      H3276   1.084       .  S
C3268      C3274   1.408       .  A
C3269      C3271   1.405       .  A
C3269      C3270   1.413       .  A
C3270      H3277   1.079       .  S
C3271      C3272   1.402       .  A
C3271      H3278   1.083       .  S
C3272      C3273   1.403       .  A
C3272      H3279   1.083       .  S
C3274      H3280   1.084       .  S
C3281      C3286   1.420       .  A
C3282      C3283   1.405       .  A
C3282      H3291   1.083       .  S
C3283      C3284   1.404       .  A
C3283      H3292   1.083       .  S
C3284      C3290   1.415       .  A
C3285      C3287   1.404       .  A
C3285      C3286   1.408       .  A
C3286      H3293   1.078       .  S
C3287      C3288   1.399       .  A
C3287      H3294   1.084       .  S
C3288      C3289   1.403       .  A
C3288      H3295   1.083       .  S
C3290      H3296   1.084       .  S
C3297      C3298   1.417       .  A
C3297      C3302   1.419       .  A
C3298      C3299   1.399       .  A
C3298      H3307   1.077       .  S
C3299      C3300   1.399       .  A
C3299      H3308   1.084       .  S
C3300      C3306   1.409       .  A
C3300      C3301   1.412       .  A
C3301      C3303   1.405       .  A
C3301      C3302   1.409       .  A
C3302      H3309   1.084       .  S
C3303      C3304   1.402       .  A
C3303      H3310   1.084       .  S
C3304      C3305   1.403       .  A
C3304      H3311   1.083       .  S
C3305      C3306   1.404       .  A
C3306      H3312   1.084       .  S
C3313      C3314   1.408       .  A
C3313      C3318   1.404       .  A
C3314      C3315   1.402       .  A
C3314      H3323   1.082       .  S
C3315      C3316   1.403       .  A
C3315      H3324   1.084       .  S
C3316      C3322   1.413       .  A
C3316      C3317   1.413       .  A
C3317      C3319   1.396       .  A
C3317      C3318   1.410       .  A
C3318      H3325   1.084       .  S
C3319      C3320   1.397       .  A
C3319      H3326   1.084       .  S
C3320      C3321   1.420       .  A
C3320      H3327   1.079       .  S
C3321      C3322   1.417       .  A
C3322      H3328   1.084       .  S
C3329      C3330   1.404       .  A
C3329      C3334   1.406       .  A
C3330      C3331   1.400       .  A
C3330      H3339   1.083       .  S
C3331      C3332   1.405       .  A
C3331      H3340   1.084       .  S
C3332      C3338   1.406       .  A
C3332      C3333   1.413       .  A
C3333      C3335   1.402       .  A
C3333      C3334   1.403       .  A
C3334      H3341   1.084       .  S
C3335      C3336   1.398       .  A
C3335      H3342   1.084       .  S
C3336      C3337   1.405       .  A
C3336      H3343   1.083       .  S
C3337      C3338   1.409       .  A
C3338      H3344   1.083       .  S
C3345      C3346   1.402       .  A
C3345      C3350   1.399       .  A
C3346      C3347   1.400       .  A
C3346      H3355   1.083       .  S
C3347      C3348   1.405       .  A
C3347      H3356   1.083       .  S
C3348      C3354   1.406       .  A
C3348      C3349   1.415       .  A
C3349      C3351   1.398       .  A
C3349      C3350   1.398       .  A
C3350      H3357   1.085       .  S
C3351      C3352   1.392       .  A
C3351      H3358   1.084       .  S
C3352      C3353   1.405       .  A
C3352      H3359   1.083       .  S
C3353      C3354   1.406       .  A
C3354      H3360   1.083       .  S
C3361      C3362   1.406       .  A
C3361      C3366   1.406       .  A
C3362      C3363   1.392       .  A
C3362      H3371   1.083       .  S
C3363      C3364   1.398       .  A
C3363      H3372   1.084       .  S
C3364      C3370   1.399       .  A
C3364      C3365   1.416       .  A
C3365      C3367   1.405       .  A
C3365      C3366   1.407       .  A
C3366      H3373   1.083       .  S
C3367      C3368   1.400       .  A
C3367      H3374   1.083       .  S
C3368      C3369   1.402       .  A
C3368      H3375   1.083       .  S
C3369      C3370   1.400       .  A
C3370      H3376   1.085       .  S
C3377      C3378   1.403       .  A
C3377      C3382   1.402       .  A
C3378      C3379   1.400       .  A
C3378      H3387   1.083       .  S
C3379      C3380   1.404       .  A
C3379      H3388   1.083       .  S
C3380      C3386   1.411       .  A
C3380      C3381   1.416       .  A
C3381      C3383   1.398       .  A
C3381      C3382   1.404       .  A
C3382      H3389   1.084       .  S
C3383      C3384   1.394       .  A
C3383      H3390   1.084       .  S
C3384      C3385   1.408       .  A
C3384      H3391   1.083       .  S
C3385      C3386   1.407       .  A
C3386      H3392   1.083       .  S
C3393      C3398   1.418       .  A
C3394      C3395   1.404       .  A
C3394      H3403   1.083       .  S
C3395      C3396   1.404       .  A
C3395      H3404   1.083       .  S
C3396      C3402   1.409       .  A
C3397      C3399   1.402       .  A
C3397      C3398   1.399       .  A
C3398      H3405   1.080       .  S
C3399      C3400   1.393       .  A
C3399      H3406   1.084       .  S
C3400      C3401   1.402       .  A
C3400      H3407   1.083       .  S
C3402      H3408   1.084       .  S
C3409      C3414   1.412       .  A
C3410      C3411   1.388   1_565  A
C3410      H3419   1.083       .  S
C3411      C3412   1.392       .  A
C3411      H3420   1.084       .  S
C3412      C3418   1.400       .  A
C3413      C3415   1.403       .  A
C3413      C3414   1.408       .  A
C3414      H3421   1.080       .  S
C3415      C3416   1.398       .  A
C3415      H3422   1.083       .  S
C3416      C3417   1.402       .  A
C3416      H3423   1.083       .  S
C3418      H3424   1.085       .  S
C3425      C3426   1.419       .  A
C3425      C3430   1.413       .  A
C3426      C3427   1.387       .  A
C3426      H3435   1.083       .  S
C3427      C3428   1.392       .  A
C3427      H3436   1.084       .  S
C3428      C3434   1.401       .  A
C3428      C3429   1.416       .  A
C3429      C3431   1.404       .  A
C3429      C3430   1.412       .  A
C3430      H3437   1.080       .  S
C3431      C3432   1.401       .  A
C3431      H3438   1.083       .  S
C3432      C3433   1.403       .  A
C3432      H3439   1.083       .  S
C3433      C3434   1.395       .  A
C3434      H3440   1.085       .  S
C3441      C3442   1.422       .  A
C3441      C3446   1.418       .  A
C3442      C3443   1.391       .  A
C3442      H3451   1.079       .  S
C3443      C3444   1.392       .  A
C3443      H3452   1.084       .  S
C3444      C3450   1.406       .  A
C3444      C3445   1.413       .  A
C3445      C3447   1.405       .  A
C3445      C3446   1.417       .  A
C3446      H3453   1.084       .  S
C3447      C3448   1.406       .  A
C3447      H3454   1.083       .  S
C3448      C3449   1.408       .  A
C3448      H3455   1.083       .  S
C3449      C3450   1.401       .  A
C3450      H3456   1.084       .  S
