geometry optimzed in LAMMPS
_audit_creation_date              2020-12-01 
_audit_creation_method            'lammps2cif' 
_symmetry_space_group_name_H-M    'P1' 
_symmetry_Int_Tables_number       1 
_symmetry_cell_setting            triclinic 
loop_ 
_symmetry_equiv_pos_as_xyz 
  x,y,z 
_cell_length_a                    38.91898149 
_cell_length_b                    29.87607228341654 
_cell_length_c                    36.79549403516862 
_cell_angle_alpha                 90.24901767754206 
_cell_angle_beta                  89.17153325908875 
_cell_angle_gamma                 89.49324304075432 
loop_ 
_atom_site_label 
_atom_site_type_symbol 
_atom_site_fract_x 
_atom_site_fract_y 
_atom_site_fract_z 
_atom_site_charge 
N1          N  0.50482079  0.49802199  0.05454960    -0.36300
N2          N  0.50376165  0.42824584  0.49862528    -0.56900
N3          N  0.99981276  0.49797017  0.44446421    -0.36300
N4          N  0.00550849  0.56760095  0.50032452    -0.56900
C5          C  0.51489442  0.46225424  0.07437107     0.27300
C6          C  0.00753960  0.53481195  0.07590149     0.27300
C7          C  0.50082308  0.46097393  0.42302559     0.27300
C8          C  0.00969474  0.53313065  0.42369929     0.27300
C9          C  0.50442937  0.40182197  0.02837874     0.35900
C10         C  0.49435088  0.40219643  0.47032494     0.35900
C11         C  0.99750790  0.59364570  0.02953786     0.35900
C12         C  0.00345793  0.59386106  0.47053094     0.35900
C13         C  0.52417544  0.47682463  0.10877657    -0.21600
C14         C  0.01929989  0.52238842  0.10978647    -0.21600
C15         C  0.51097168  0.47280728  0.38812932    -0.21600
C16         C  0.01686060  0.51804264  0.38861985    -0.21600
C17         C  0.49635923  0.35827662  0.01873709    -0.22700
C18         C  0.48969514  0.35859387  0.48201471    -0.22700
C19         C  0.99085400  0.63702489  0.01828087    -0.22700
C20         C  0.99500704  0.63727593  0.48094145    -0.22700
C21         C  0.51239941  0.41649683  0.06400512    -0.18000
C22         C  0.99827370  0.57911801  0.06624017    -0.18000
C23         C  0.00923520  0.57903588  0.43419134    -0.18000
C24         C  0.49242861  0.41677665  0.43374148    -0.18000
H25         H  0.53259493  0.45667869  0.13138477     0.14900
H26         H  0.02378259  0.54387841  0.13296495     0.14900
H27         H  0.51410440  0.45107021  0.36468680     0.14900
H28         H  0.02478232  0.53771864  0.36539327     0.14900
H29         H  0.49514243  0.32938963  0.03634764     0.13200
H30         H  0.48281801  0.32989686  0.46569522     0.13200
H31         H  0.98420645  0.66560238  0.03522331     0.13200
H32         H  0.99164164  0.66594314  0.46342655     0.13200
H33         H  0.49247439  0.49703085  0.02982313     0.26400
H34         H  0.98905383  0.49964802  0.47036627     0.26400
O35         O  0.02788369  0.17292848  0.28899709    -0.85100
O36         O  0.45751887  0.17596615  0.27821178    -0.82100
C37         C  0.42912313  0.18971128  0.26624721     0.98400
O38         O  0.42809897  0.22376035  0.24617440    -0.82100
O39         O  0.45714439  0.29448250  0.28623666    -0.84800
C40         C  0.48164727  0.31642351  0.30006656     1.02900
O41         O  0.00938699  0.32040719  0.28211534    -0.77500
O42         O  0.03313803  0.24164963  0.31025997    -0.77700
C43         C  0.03235523  0.19973309  0.31498866     1.02900
O44         O  0.04003346  0.17673289  0.21333021    -0.85100
O45         O  0.47004340  0.17731598  0.20210957    -0.82100
C46         C  0.46970342  0.20552871  0.17680826     0.98400
O47         O  0.46793535  0.24714406  0.18365923    -0.82100
O48         O  0.48856122  0.32376932  0.21899151    -0.84800
C49         C  0.01505043  0.31972141  0.19922801     1.02900
O50         O  0.03980685  0.29648098  0.21108593    -0.77600
O51         O  0.07037356  0.22363408  0.24506265    -0.77700
C52         C  0.06877125  0.19086334  0.22356721     1.02900
Cr53       Cr  0.49890013  0.18025555  0.24586208     1.93700
Cr54       Cr  0.46237424  0.27057442  0.23479349     1.93200
Cr55       Cr  0.03592407  0.26902550  0.26099910     1.39100
O56         O  0.49905097  0.23941232  0.24756825    -1.22800
N57         N  0.29703664  0.99555138  0.25228981    -0.36300
N58         N  0.24301057  0.93080873  0.25759651    -0.56900
N59         N  0.19527339  0.00492228  0.25878802    -0.36300
N60         N  0.24885670  0.06979967  0.25427538    -0.56900
C61         C  0.31536746  0.95695818  0.24996467     0.27300
C62         C  0.31888303  0.02853697  0.26187107     0.27300
C63         C  0.17765085  0.97298027  0.27677741     0.27300
C64         C  0.17938890  0.04419475  0.26621656     0.27300
C65         C  0.26697606  0.90435477  0.24135409     0.35900
C66         C  0.21290293  0.90882946  0.25632611     0.35900
C67         C  0.27690308  0.09289514  0.26372610     0.35900
C68         C  0.22215205  0.09895772  0.25325521     0.35900
C69         C  0.34937469  0.96538119  0.25812777    -0.21600
C70         C  0.35164494  0.01034566  0.26536696    -0.21600
C71         C  0.15095891  0.99259772  0.29683884    -0.21600
C72         C  0.15207405  0.03785170  0.29008328    -0.21600
C73         C  0.25204762  0.86475757  0.23000628    -0.22700
C74         C  0.21768372  0.86751171  0.23971919    -0.22700
C75         C  0.26779057  0.13710960  0.27050558    -0.22700
C76         C  0.23304946  0.14078699  0.26460632    -0.22700
C77         C  0.30242061  0.91464502  0.23938757    -0.18000
C78         C  0.31059619  0.07478356  0.26618441    -0.18000
C79         C  0.18775076  0.08488586  0.24943164    -0.18000
C80         C  0.18160278  0.92664959  0.27015529    -0.18000
H81         H  0.37053225  0.94167840  0.25888505     0.14900
H82         H  0.37512767  0.02737188  0.27201053     0.14900
H83         H  0.13169296  0.97574156  0.31313686     0.14900
H84         H  0.13421197  0.06302189  0.30034730     0.14900
H85         H  0.26462692  0.83677307  0.21640621     0.13200
H86         H  0.19842588  0.84245187  0.23457167     0.13200
H87         H  0.28411272  0.16345808  0.28049768     0.13200
H88         H  0.21766383  0.16955083  0.27250199     0.13200
H89         H  0.27179155  0.99920388  0.24438369     0.26400
H90         H  0.21342726  0.99988381  0.23803276     0.26400
O91         O  0.01820202  0.82954711  0.20619743    -0.85100
O92         O  0.44880439  0.81755581  0.21796013    -0.82100
C93         C  0.42133876  0.80175465  0.23089404     0.98400
O94         O  0.42287783  0.76982962  0.25304115    -0.82100
O95         O  0.45809861  0.70144909  0.21374893    -0.84800
C96         C  0.48441709  0.68188813  0.19976439     1.02900
O97         O  0.01239611  0.68152437  0.21696676    -0.77500
O98         O  0.03351339  0.76136356  0.18853027    -0.77700
C99         C  0.02857337  0.80258507  0.18201442     1.02900
O100        O  0.02977821  0.83204146  0.28115389    -0.85100
O101        O  0.46014525  0.82199571  0.29429780    -0.82100
C102        C  0.46311764  0.79545790  0.32058188     0.98400
O103        O  0.46456803  0.75343990  0.31504593    -0.82100
O104        O  0.48932990  0.67632918  0.28034031    -0.84800
C105        C  0.01446748  0.68213897  0.30067090     1.02900
O106        O  0.03788174  0.70817091  0.28946004    -0.77600
O107        O  0.06513849  0.78376406  0.25496381    -0.77700
C108        C  0.05983833  0.81915328  0.27287786     1.02900
Cr109      Cr  0.48966860  0.82056067  0.24992956     1.93700
Cr110      Cr  0.46061828  0.72734826  0.26454656     1.93200
Cr111      Cr  0.03466578  0.73512368  0.23867859     1.39100
O112        O  0.49514630  0.76158415  0.25050001    -1.22800
N113        N  0.50896488  0.00208882  0.05341750    -0.36300
N114        N  0.50406074  0.93256391  0.49837914    -0.56900
N115        N  0.50667637  0.00007908  0.44224891    -0.36300
N116        N  0.50675855  0.06963932  0.49750357    -0.56900
C117        C  0.50584730  0.96526581  0.07437722     0.27300
C118        C  0.49882931  0.03799747  0.07370086     0.27300
C119        C  0.49513711  0.96507791  0.42240119     0.27300
C120        C  0.50439382  0.03720598  0.42153778     0.27300
C121        C  0.51406978  0.90688318  0.02649664     0.35900
C122        C  0.50447915  0.90575905  0.46868008     0.35900
C123        C  0.50884415  0.09644577  0.02694743     0.35900
C124        C  0.51628344  0.09467945  0.46878688     0.35900
C125        C  0.49438123  0.97784920  0.10881703    -0.21600
C126        C  0.48967416  0.02370488  0.10830941    -0.21600
C127        C  0.48597995  0.98030549  0.38824213    -0.21600
C128        C  0.49203681  0.02575961  0.38763935    -0.21600
C129        C  0.52092580  0.86359896  0.01451869    -0.22700
C130        C  0.51388989  0.86257907  0.47821387    -0.22700
C131        C  0.51888969  0.13904090  0.01680061    -0.22700
C132        C  0.52455626  0.13758406  0.48007995    -0.22700
C133        C  0.51397742  0.92082260  0.06328426    -0.18000
C134        C  0.50016017  0.08344081  0.06258184    -0.18000
C135        C  0.51419548  0.08083116  0.43225993    -0.18000
C136        C  0.49534720  0.91945988  0.43336955    -0.18000
H137        H  0.48967161  0.95619263  0.13182883     0.14900
H138        H  0.48118893  0.04423717  0.13108156     0.14900
H139        H  0.47669504  0.96063275  0.36572523     0.14900
H140        H  0.48772538  0.04789221  0.36490685     0.14900
H141        H  0.52935754  0.83519006  0.03028598     0.13200
H142        H  0.51601729  0.83323887  0.46103711     0.13200
H143        H  0.52198917  0.16824229  0.03383823     0.13200
H144        H  0.53274463  0.16551723  0.46357101     0.13200
H145        H  0.52093866  0.00264769  0.02806136     0.26400
H146        H  0.51905740  0.99844479  0.46696829     0.26400
C147        C  0.03216907  0.82183963  0.14572599    -0.05200
C148        C  0.05464604  0.85800191  0.14142118    -0.32600
C149        C  0.04910737  0.89015832  0.11453135     0.36600
C150        C  0.02067684  0.88646653  0.09156434    -0.05500
C151        C  0.49894932  0.84934257  0.09503605    -0.32500
C152        C  0.50487846  0.81680375  0.12149787     0.36500
H153        H  0.07499510  0.86315051  0.16077230     0.16900
O154        O  0.07108551  0.92564155  0.11139282    -0.60000
H155        H  0.47685485  0.84619730  0.07765432     0.16900
O156        O  0.48159351  0.78304256  0.12619381    -0.60100
H157        H  0.48999324  0.75838914  0.11017161     0.43900
H158        H  0.06433472  0.94652711  0.13133008     0.43900
C159        C  0.46888411  0.81624101  0.35625735    -0.05200
C160        C  0.44327245  0.84431673  0.37134436    -0.32600
C161        C  0.45152482  0.87743114  0.39689389     0.36600
C162        C  0.48598511  0.88392653  0.40669625    -0.05500
C163        C  0.01147376  0.85527675  0.39209507    -0.32500
C164        C  0.00300724  0.82092047  0.36788944     0.36500
H165        H  0.41711115  0.84209069  0.36185545     0.16900
O166        O  0.42589366  0.90385496  0.41170626    -0.60000
H167        H  0.03809044  0.85976746  0.39943889     0.16900
O168        O  0.02882872  0.79476818  0.35314585    -0.60100
H169        H  0.02786445  0.76622014  0.36675128     0.43900
H170        H  0.42039742  0.92617904  0.39274109     0.43900
C171        C  0.08903852  0.84909350  0.27792357    -0.05200
C172        C  0.11830879  0.83494075  0.29672377    -0.32600
C173        C  0.14877944  0.85986191  0.29486301     0.36600
C174        C  0.15031021  0.89846726  0.27302345    -0.05500
C175        C  0.12094246  0.91203833  0.25412599    -0.32500
C176        C  0.09044759  0.88822456  0.25693908     0.36500
H177        H  0.11767100  0.80426123  0.31230357     0.16900
O178        O  0.17659802  0.84687659  0.31485729    -0.60000
H179        H  0.12175862  0.94131530  0.23684604     0.16900
O180        O  0.06289498  0.90148717  0.23665157    -0.60100
H181        H  0.04912200  0.92149462  0.25287530     0.43900
H182        H  0.18601345  0.81982853  0.30241886     0.43900
C183        C  0.32802798  0.87878221  0.23027941    -0.05200
C184        C  0.35287808  0.88577154  0.20271403    -0.32600
C185        C  0.38272040  0.85907988  0.20050574     0.36600
C186        C  0.38752302  0.82403229  0.22551623    -0.05500
C187        C  0.36072347  0.81430104  0.25033471    -0.32500
C188        C  0.33170513  0.84183290  0.25341198     0.36500
H189        H  0.35040960  0.91426557  0.18478940     0.16900
O190        O  0.40790004  0.86961378  0.17561184    -0.60000
H191        H  0.36345805  0.78751577  0.26985828     0.16900
O192        O  0.30854535  0.83448249  0.28117455    -0.60100
H193        H  0.31641439  0.85326863  0.30167618     0.43900
H194        H  0.40357380  0.85017176  0.15428176     0.43900
C195        C  0.47529354  0.18734020  0.14020521    -0.05200
C196        C  0.00962133  0.17903030  0.12985141    -0.32600
C197        C  0.01808378  0.14489227  0.10505153     0.36600
C198        C  0.49187922  0.11964317  0.08919904    -0.05500
C199        C  0.45739367  0.13016380  0.09743055    -0.32500
C200        C  0.44904521  0.16319974  0.12335568     0.36500
H201        H  0.03016738  0.19625566  0.14353700     0.16900
O202        O  0.05197885  0.13443249  0.09809617    -0.60000
H203        H  0.43701916  0.11140044  0.08484264     0.16900
O204        O  0.41535924  0.17003794  0.13355552    -0.60100
H205        H  0.41061341  0.14736053  0.15254368     0.43900
H206        H  0.06162983  0.16068851  0.08523371     0.43900
C207        C  0.03391260  0.17959879  0.35086044    -0.05200
C208        C  0.05708837  0.14396094  0.35566737    -0.32600
C209        C  0.05085606  0.11169089  0.38218567     0.36600
C210        C  0.02102463  0.11475632  0.40399929    -0.05500
C211        C  0.49872774  0.15163757  0.40043159    -0.32500
C212        C  0.50532284  0.18438671  0.37434556     0.36500
H213        H  0.07872822  0.13945741  0.33708203     0.16900
O214        O  0.07367966  0.07688154  0.38625913    -0.60000
H215        H  0.47590042  0.15449109  0.41752758     0.16900
O216        O  0.48172814  0.21809167  0.36929771    -0.58700
H217        H  0.48936599  0.24296616  0.38508335     0.43900
H218        H  0.06681447  0.05403652  0.36819094     0.43900
C219        C  0.39747422  0.16297681  0.26990032    -0.05200
C220        C  0.37464932  0.16371479  0.24062094    -0.32600
C221        C  0.34642142  0.13555544  0.23974076     0.36600
C222        C  0.33947372  0.10693969  0.26906707    -0.05500
C223        C  0.36126849  0.10735209  0.29929780    -0.32500
C224        C  0.39059701  0.13454570  0.29951752     0.36500
H225        H  0.37960872  0.18468133  0.21719149     0.16900
O226        O  0.32612082  0.13542004  0.20954553    -0.60000
H227        H  0.35620519  0.08532227  0.32202243     0.16900
O228        O  0.41257313  0.13237418  0.32825895    -0.60100
H229        H  0.40508740  0.15688874  0.34489806     0.43900
H230        H  0.33558258  0.11112182  0.19380089     0.43900
C231        C  0.10063653  0.16515385  0.21607096    -0.05200
C232        C  0.09908503  0.11853308  0.21394263    -0.32600
C233        C  0.12801624  0.09219999  0.22175174     0.36600
C234        C  0.15911945  0.11265406  0.23288227    -0.05500
C235        C  0.16204835  0.15894581  0.22630146    -0.32500
C236        C  0.13295480  0.18531098  0.21942463     0.36500
H237        H  0.07482810  0.10222548  0.20896606     0.16900
O238        O  0.12598684  0.04660348  0.21716190    -0.60000
H239        H  0.18623813  0.17580949  0.22676395     0.16900
O240        O  0.13619717  0.23090894  0.21678877    -0.60100
H241        H  0.13991641  0.24166058  0.24196263     0.43900
H242        H  0.10661961  0.03655212  0.23286612     0.43900
C243        C  0.01379592  0.38329935  0.09404936    -0.05200
C244        C  0.48315637  0.37350676  0.11240843    -0.32600
C245        C  0.48344879  0.35220744  0.14608725     0.36600
C246        C  0.01500475  0.34008963  0.16234521    -0.05500
C247        C  0.04569231  0.34701212  0.14261605    -0.32500
C248        C  0.04520850  0.36856543  0.10866116     0.36500
H249        H  0.45884541  0.38452821  0.10137909     0.16900
O250        O  0.45250046  0.34326237  0.16275210    -0.60000
H251        H  0.07009946  0.33715207  0.15403059     0.16900
O252        O  0.07560732  0.37763242  0.09105592    -0.60100
H253        H  0.08013604  0.35126042  0.07518552     0.43900
H254        H  0.44506267  0.37186998  0.17430315     0.43900
C255        C  0.48047142  0.33621021  0.33733926    -0.05200
C256        C  0.01073125  0.33396377  0.35786636    -0.32600
C257        C  0.01372181  0.35702589  0.39079107     0.36600
C258        C  0.48634329  0.38357717  0.40400221    -0.05500
C259        C  0.45532239  0.38430723  0.38465354    -0.32500
C260        C  0.45214224  0.36046172  0.35164700     0.36500
H261        H  0.03290995  0.31548152  0.34765842     0.16900
O262        O  0.04431923  0.35558386  0.40881745    -0.60000
H263        H  0.43413102  0.40512971  0.39428612     0.16900
O264        O  0.42213375  0.36328848  0.33269747    -0.60100
H265        H  0.42345781  0.39196228  0.31929246     0.43900
H266        H  0.05813028  0.38028869  0.39841408     0.43900
C267        C  0.49186242  0.61165720  0.09674756    -0.05200
C268        C  0.46146383  0.60898090  0.11790297    -0.32600
C269        C  0.45760235  0.63314761  0.15076723     0.36600
C270        C  0.48457723  0.66003383  0.16319257    -0.05500
C271        C  0.01444273  0.66364951  0.14124209    -0.32500
C272        C  0.01809321  0.64010678  0.10835290     0.36500
H273        H  0.44126576  0.58655982  0.10964395     0.16900
O274        O  0.42829145  0.62819506  0.17140522    -0.60000
H275        H  0.03564309  0.68401964  0.15012470     0.16900
O276        O  0.04846965  0.64247614  0.08912471    -0.60100
H277        H  0.04566605  0.66841532  0.07267873     0.43900
H278        H  0.43282318  0.60193679  0.18708486     0.43900
C279        C  0.01112313  0.61250737  0.40408337    -0.05200
C280        C  0.48107507  0.62228799  0.38532815    -0.32600
C281        C  0.98210310  0.64572094  0.35251268     0.36600
C282        C  0.01388611  0.65998187  0.33718755    -0.05500
C283        C  0.04396920  0.65220132  0.35704506    -0.32500
C284        C  0.04275770  0.62815170  0.39004449     0.36500
H285        H  0.45665105  0.60999713  0.39548511     0.16900
O286        O  0.45164858  0.65336815  0.33514924    -0.60000
H287        H  0.06853861  0.66314929  0.34632529     0.16900
O288        O  0.07270091  0.61873210  0.40773571    -0.60100
H289        H  0.08101125  0.58992386  0.39722147     0.43900
H290        H  0.44046275  0.67853816  0.34857001     0.43900
N291        N  0.50482031  0.49802273  0.55454967    -0.36300
N292        N  0.50376286  0.42824531  0.99862515    -0.56900
N293        N  0.99981326  0.49796992  0.94446410    -0.36300
N294        N  0.00550881  0.56760053  0.00032443    -0.56900
C295        C  0.51489367  0.46225490  0.57437116     0.27300
C296        C  0.00753886  0.53481261  0.57590159     0.27300
C297        C  0.50082346  0.46097364  0.92302540     0.27300
C298        C  0.00969456  0.53313058  0.92369902     0.27300
C299        C  0.50442810  0.40182261  0.52837891     0.35900
C300        C  0.49435202  0.40219596  0.97032479     0.35900
C301        C  0.99750761  0.59364630  0.52953785     0.35900
C302        C  0.00345811  0.59386078  0.97053092     0.35900
C303        C  0.52417470  0.47682522  0.60877668    -0.21600
C304        C  0.01929908  0.52238901  0.60978658    -0.21600
C305        C  0.51097137  0.47280718  0.88812895    -0.21600
C306        C  0.01685987  0.51804271  0.88861942    -0.21600
C307        C  0.49635787  0.35827726  0.51873732    -0.22700
C308        C  0.48969641  0.35859335  0.98201450    -0.22700
C309        C  0.99085384  0.63702547  0.51828074    -0.22700
C310        C  0.99500716  0.63727556  0.98094159    -0.22700
C311        C  0.51239843  0.41649750  0.56400521    -0.18000
C312        C  0.99827332  0.57911873  0.56624018    -0.18000
C313        C  0.00923503  0.57903578  0.93419119    -0.18000
C314        C  0.49242933  0.41677629  0.93374136    -0.18000
H315        H  0.53259400  0.45667920  0.63138491     0.14900
H316        H  0.02378188  0.54387896  0.63296508     0.14900
H317        H  0.51410389  0.45107019  0.86468635     0.14900
H318        H  0.02478098  0.53771884  0.86539269     0.14900
H319        H  0.49514109  0.32939032  0.53634791     0.13200
H320        H  0.48281918  0.32989640  0.96569498     0.13200
H321        H  0.98420636  0.66560306  0.53522312     0.13200
H322        H  0.99164161  0.66594285  0.96342680     0.13200
H323        H  0.49247400  0.49703162  0.52982310     0.26400
H324        H  0.98905482  0.49964754  0.97036637     0.26400
O325        O  0.02788358  0.17292869  0.78899660    -0.85100
O326        O  0.45751859  0.17596614  0.77821171    -0.82100
C327        C  0.42912281  0.18971136  0.76624730     0.98400
O328        O  0.42809856  0.22376038  0.74617446    -0.82100
O329        O  0.45714401  0.29448243  0.78623659    -0.84800
C330        C  0.48164690  0.31642362  0.80006631     1.02900
O331        O  0.00938646  0.32040744  0.78211499    -0.77500
O332        O  0.03313790  0.24164981  0.81025957    -0.77700
C333        C  0.03235531  0.19973324  0.81498818     1.02900
O334        O  0.04003283  0.17673338  0.71332970    -0.85100
O335        O  0.47004281  0.17731604  0.70210954    -0.82100
C336        C  0.46970277  0.20552870  0.67680819     0.98400
O337        O  0.46793459  0.24714405  0.68365910    -0.82100
O338        O  0.48856057  0.32376925  0.71899122    -0.84800
C339        C  0.01504948  0.31972162  0.69922773     1.02900
O340        O  0.03980600  0.29648135  0.71108560    -0.77600
O341        O  0.07037301  0.22363452  0.74506209    -0.77700
C342        C  0.06877066  0.19086379  0.72356665     1.02900
Cr343      Cr  0.49889973  0.18025564  0.74586183     1.93700
Cr344      Cr  0.46237369  0.27057441  0.73479337     1.93200
Cr345      Cr  0.03592352  0.26902581  0.76099872     1.39100
O346        O  0.49905049  0.23941238  0.74756800    -1.22800
N347        N  0.29703601  0.99555248  0.75228996    -0.36300
N348        N  0.24301022  0.93080970  0.75759649    -0.56900
N349        N  0.19527288  0.00492317  0.75878854    -0.36300
N350        N  0.24885600  0.06980054  0.75427623    -0.56900
C351        C  0.31536690  0.95695934  0.74996453     0.27300
C352        C  0.31888233  0.02853796  0.76187162     0.27300
C353        C  0.17765053  0.97298104  0.77677798     0.27300
C354        C  0.17938831  0.04419555  0.76621716     0.27300
C355        C  0.26697557  0.90435606  0.74135349     0.35900
C356        C  0.21290257  0.90883048  0.75632613     0.35900
C357        C  0.27690242  0.09289612  0.76372661     0.35900
C358        C  0.22215136  0.09895859  0.75325574     0.35900
C359        C  0.34937407  0.96538227  0.75812792    -0.21600
C360        C  0.35164422  0.01034663  0.76536750    -0.21600
C361        C  0.15095857  0.99259833  0.79683948    -0.21600
C362        C  0.15207355  0.03785234  0.79008399    -0.21600
C363        C  0.25204700  0.86475910  0.73000530    -0.22700
C364        C  0.21768320  0.86751304  0.73971866    -0.22700
C365        C  0.26778994  0.13711069  0.77050562    -0.22700
C366        C  0.23304882  0.14078807  0.76460634    -0.22700
C367        C  0.30242012  0.91464634  0.73938687    -0.18000
C368        C  0.31059552  0.07478452  0.76618501    -0.18000
C369        C  0.18775007  0.08488668  0.74943222    -0.18000
C370        C  0.18160254  0.92665042  0.77015572    -0.18000
H371        H  0.37053171  0.94167959  0.75888508     0.14900
H372        H  0.37512691  0.02737282  0.77201115     0.14900
H373        H  0.13169272  0.97574202  0.81313753     0.14900
H374        H  0.13421143  0.06302240  0.80034816     0.14900
H375        H  0.26462614  0.83677487  0.71640473     0.13200
H376        H  0.19842533  0.84245327  0.73457108     0.13200
H377        H  0.28411216  0.16345932  0.78049732     0.13200
H378        H  0.21766323  0.16955211  0.77250164     0.13200
H379        H  0.27179102  0.99920507  0.74438358     0.26400
H380        H  0.21342669  0.99988485  0.73803320     0.26400
O381        O  0.01820217  0.82954805  0.70619756    -0.85100
O382        O  0.44880439  0.81755782  0.71795994    -0.82100
C383        C  0.42133861  0.80175659  0.73089345     0.98400
O384        O  0.42287744  0.76983136  0.75304038    -0.82100
O385        O  0.45809829  0.70145061  0.71374845    -0.84800
C386        C  0.48441679  0.68188929  0.69976428     1.02900
O387        O  0.01239563  0.68152529  0.71696697    -0.77500
O388        O  0.03351314  0.76136431  0.68853051    -0.77700
C389        C  0.02857334  0.80258583  0.68201459     1.02900
O390        O  0.02977799  0.83204230  0.78115415    -0.85100
O391        O  0.46014487  0.82199718  0.79429774    -0.82100
C392        C  0.46311668  0.79545906  0.82058170     0.98400
O393        O  0.46456682  0.75344110  0.81504557    -0.82100
O394        O  0.48932882  0.67633045  0.78034053    -0.84800
C395        C  0.01446647  0.68213991  0.80067111     1.02900
O396        O  0.03788088  0.70817172  0.78946033    -0.77600
O397        O  0.06513819  0.78376483  0.75496406    -0.77700
C398        C  0.05983810  0.81915408  0.77287809     1.02900
Cr399      Cr  0.48966846  0.82056196  0.74992965     1.93700
Cr400      Cr  0.46061755  0.72734968  0.76454618     1.93200
Cr401      Cr  0.03466531  0.73512454  0.73867885     1.39100
O402        O  0.49514584  0.76158536  0.75050009    -1.22800
N403        N  0.50896487  0.00208881  0.55341757    -0.36300
N404        N  0.50406089  0.93256385  0.99837931    -0.56900
N405        N  0.50667708  0.00007891  0.94224884    -0.36300
N406        N  0.50675895  0.06963937  0.99750331    -0.56900
C407        C  0.50584705  0.96526570  0.57437709     0.27300
C408        C  0.49882915  0.03799731  0.57370102     0.27300
C409        C  0.49513784  0.96507773  0.92240108     0.27300
C410        C  0.50439493  0.03720571  0.92153750     0.27300
C411        C  0.51406999  0.90688336  0.52649638     0.35900
C412        C  0.50447906  0.90575893  0.96868029     0.35900
C413        C  0.50884402  0.09644563  0.52694772     0.35900
C414        C  0.51628416  0.09467935  0.96878665     0.35900
C415        C  0.49438063  0.97784882  0.60881686    -0.21600
C416        C  0.48967362  0.02370452  0.60830943    -0.21600
C417        C  0.48598125  0.98030519  0.88824182    -0.21600
C418        C  0.49203829  0.02575925  0.88763894    -0.21600
C419        C  0.52092645  0.86359930  0.51451835    -0.22700
C420        C  0.51388931  0.86257881  0.97821419    -0.22700
C421        C  0.51888938  0.13904081  0.51680089    -0.22700
C422        C  0.52455697  0.13758396  0.98007973    -0.22700
C423        C  0.51397750  0.92082265  0.56328402    -0.18000
C424        C  0.50016013  0.08344065  0.56258213    -0.18000
C425        C  0.51419645  0.08083096  0.93225968    -0.18000
C426        C  0.49534731  0.91945979  0.93336970    -0.18000
H427        H  0.48967078  0.95619207  0.63182851     0.14900
H428        H  0.48118813  0.04423669  0.63108156     0.14900
H429        H  0.47669652  0.96063240  0.86572486     0.14900
H430        H  0.48772715  0.04789175  0.86490630     0.14900
H431        H  0.52935854  0.83519054  0.53028557     0.13200
H432        H  0.51601642  0.83323855  0.96103748     0.13200
H433        H  0.52198887  0.16824217  0.53383854     0.13200
H434        H  0.53274566  0.16551702  0.96357084     0.13200
H435        H  0.52093892  0.00264780  0.52806157     0.26400
H436        H  0.51905766  0.99844468  0.96696840     0.26400
C437        C  0.03216917  0.82184017  0.64572609    -0.05200
C438        C  0.05464583  0.85800277  0.64142136    -0.32600
C439        C  0.04910714  0.89015886  0.61453131     0.36600
C440        C  0.02067686  0.88646646  0.59156402    -0.05500
C441        C  0.49894991  0.84934233  0.59503566    -0.32500
C442        C  0.50487908  0.81680383  0.62149774     0.36500
H443        H  0.07499460  0.86315192  0.66077271     0.16900
O444        O  0.07108496  0.92564243  0.61139285    -0.60000
H445        H  0.47685564  0.84619659  0.57765371     0.16900
O446        O  0.48159443  0.78304230  0.62619359    -0.60100
H447        H  0.48999392  0.75838943  0.61017067     0.43900
H448        H  0.06433405  0.94652780  0.63133022     0.43900
C449        C  0.46888306  0.81624166  0.85625734    -0.05200
C450        C  0.44327176  0.84431811  0.87134408    -0.32600
C451        C  0.45152446  0.87743221  0.89689373     0.36600
C452        C  0.48598478  0.88392651  0.90669649    -0.05500
C453        C  0.01147324  0.85527587  0.89209557    -0.32500
C454        C  0.00300629  0.82092001  0.86788972     0.36500
H455        H  0.41711053  0.84209295  0.86185478     0.16900
O456        O  0.42589362  0.90385684  0.91170574    -0.60000
H457        H  0.03808995  0.85976578  0.89943958     0.16900
O458        O  0.02882740  0.79476707  0.85314617    -0.60100
H459        H  0.02786288  0.76621922  0.86675184     0.43900
H460        H  0.42039793  0.92618092  0.89274042     0.43900
C461        C  0.08903836  0.84909429  0.77792373    -0.05200
C462        C  0.11830857  0.83494158  0.79672404    -0.32600
C463        C  0.14877921  0.85986275  0.79486332     0.36600
C464        C  0.15031003  0.89846805  0.77302373    -0.05500
C465        C  0.12094242  0.91203901  0.75412604    -0.32500
C466        C  0.09044756  0.88822521  0.75693905     0.36500
H467        H  0.11767077  0.80426210  0.81230388     0.16900
O468        O  0.17659777  0.84687741  0.81485762    -0.60000
H469        H  0.12175868  0.94131592  0.73684601     0.16900
O470        O  0.06289509  0.90148766  0.73665130    -0.60100
H471        H  0.04912178  0.92149475  0.75287503     0.43900
H472        H  0.18601338  0.81982962  0.80241897     0.43900
C473        C  0.32802757  0.87878370  0.73027836    -0.05200
C474        C  0.35287811  0.88577383  0.70271353    -0.32600
C475        C  0.38272057  0.85908238  0.70050535     0.36600
C476        C  0.38752286  0.82403415  0.72551530    -0.05500
C477        C  0.36072288  0.81430205  0.75033303    -0.32500
C478        C  0.33170442  0.84183371  0.75341030     0.36500
H479        H  0.35040994  0.91426837  0.68478937     0.16900
O480        O  0.40790072  0.86961733  0.67561236    -0.60000
H481        H  0.36345715  0.78751624  0.76985615     0.16900
O482        O  0.30854426  0.83448239  0.78117237    -0.60100
H483        H  0.31641263  0.85326851  0.80167431     0.43900
H484        H  0.40357582  0.85017485  0.65428218     0.43900
C485        C  0.47529295  0.18734007  0.64020522    -0.05200
C486        C  0.00962054  0.17903049  0.62985138    -0.32600
C487        C  0.01808317  0.14489227  0.60505174     0.36600
C488        C  0.49187906  0.11964293  0.58919931    -0.05500
C489        C  0.45739346  0.13016318  0.59743083    -0.32500
C490        C  0.44904478  0.16319901  0.62335592     0.36500
H491        H  0.03016651  0.19625623  0.64353677     0.16900
O492        O  0.05197828  0.13443266  0.59809644    -0.60000
H493        H  0.43701910  0.11139951  0.58484297     0.16900
O494        O  0.41535876  0.17003656  0.63355588    -0.60100
H495        H  0.41061340  0.14735952  0.65254448     0.43900
H496        H  0.06162921  0.16068871  0.58523388     0.43900
C497        C  0.03391313  0.17959879  0.85085989    -0.05200
C498        C  0.05708876  0.14396063  0.85566627    -0.32600
C499        C  0.05085674  0.11169046  0.88218456     0.36600
C500        C  0.02102576  0.11475614  0.90399885    -0.05500
C501        C  0.49872879  0.15163774  0.90043178    -0.32500
C502        C  0.50532372  0.18438693  0.87434574     0.36500
H503        H  0.07872823  0.13945693  0.83708044     0.16900
O504        O  0.07368012  0.07688070  0.88625727    -0.60000
H505        H  0.47590174  0.15449147  0.91752816     0.16900
O506        O  0.48172913  0.21809215  0.86929831    -0.58700
H507        H  0.48936682  0.24296611  0.88508460     0.43900
H508        H  0.06681494  0.05403647  0.86818845     0.43900
C509        C  0.39747385  0.16297710  0.76990063    -0.05200
C510        C  0.37464886  0.16371522  0.74062132    -0.32600
C511        C  0.34642085  0.13555612  0.73974122     0.36600
C512        C  0.33947310  0.10694053  0.76906761    -0.05500
C513        C  0.36126800  0.10735278  0.79929827    -0.32500
C514        C  0.39059663  0.13454615  0.79951789     0.36500
H515        H  0.37960828  0.18468166  0.71719184     0.16900
O516        O  0.32612024  0.13542079  0.70954599    -0.60000
H517        H  0.35620473  0.08532296  0.82202290     0.16900
O518        O  0.41257286  0.13237443  0.82825923    -0.60100
H519        H  0.40508706  0.15688867  0.84489861     0.43900
H520        H  0.33558202  0.11112266  0.69380127     0.43900
C521        C  0.10063593  0.16515423  0.71607049    -0.05200
C522        C  0.09908443  0.11853341  0.71394265    -0.32600
C523        C  0.12801561  0.09220040  0.72175208     0.36600
C524        C  0.15911880  0.11265464  0.73288251    -0.05500
C525        C  0.16204772  0.15894632  0.72630126    -0.32500
C526        C  0.13295420  0.18531141  0.71942404     0.36500
H527        H  0.07482751  0.10222571  0.70896628     0.16900
O528        O  0.12598619  0.04660379  0.71716271    -0.60000
H529        H  0.18623750  0.17581002  0.72676363     0.16900
O530        O  0.13619658  0.23090932  0.71678769    -0.60100
H531        H  0.13991557  0.24166143  0.74196150     0.43900
H532        H  0.10661892  0.03655263  0.73286695     0.43900
C533        C  0.01379483  0.38329996  0.59404932    -0.05200
C534        C  0.48315551  0.37350709  0.61240837    -0.32600
C535        C  0.48344800  0.35220748  0.64608706     0.36600
C536        C  0.01500374  0.34008990  0.66234496    -0.05500
C537        C  0.04569128  0.34701237  0.64261575    -0.32500
C538        C  0.04520742  0.36856584  0.60866092     0.36500
H539        H  0.45884453  0.38452844  0.60137904     0.16900
O540        O  0.45249970  0.34326219  0.66275186    -0.60000
H541        H  0.07009843  0.33715216  0.65403018     0.16900
O542        O  0.07560619  0.37763257  0.59105546    -0.60100
H543        H  0.08013523  0.35125997  0.57518589     0.43900
H544        H  0.44506175  0.37186974  0.67430287     0.43900
C545        C  0.48047130  0.33621025  0.83733903    -0.05200
C546        C  0.01073127  0.33396361  0.85786597    -0.32600
C547        C  0.01372214  0.35702570  0.89079065     0.36600
C548        C  0.48634369  0.38357688  0.90400211    -0.05500
C549        C  0.45532264  0.38430703  0.88465368    -0.32500
C550        C  0.45214222  0.36046164  0.85164710     0.36500
H551        H  0.03290987  0.31548131  0.84765783     0.16900
O552        O  0.04431975  0.35558370  0.90881666    -0.60000
H553        H  0.43413139  0.40512957  0.89428645     0.16900
O554        O  0.42213363  0.36328865  0.83269777    -0.60100
H555        H  0.42345761  0.39196272  0.81929311     0.43900
H556        H  0.05813115  0.38028749  0.89841216     0.43900
C557        C  0.49186247  0.61165809  0.59674757    -0.05200
C558        C  0.46146372  0.60898228  0.61790269    -0.32600
C559        C  0.45760217  0.63314913  0.65076684     0.36600
C560        C  0.48457722  0.66003485  0.66319251    -0.05500
C561        C  0.01444284  0.66364988  0.64124227    -0.32500
C562        C  0.01809329  0.64010710  0.60835307     0.36500
H563        H  0.44126552  0.58656146  0.60964353     0.16900
O564        O  0.42829105  0.62819697  0.67140451    -0.60000
H565        H  0.03564334  0.68401968  0.65012502     0.16900
O566        O  0.04846984  0.64247597  0.58912502    -0.60100
H567        H  0.04566648  0.66841503  0.57267884     0.43900
H568        H  0.43282241  0.60193857  0.68708410     0.43900
C569        C  0.01112268  0.61250742  0.90408327    -0.05200
C570        C  0.48107454  0.62228782  0.88532815    -0.32600
C571        C  0.98210233  0.64572103  0.85251277     0.36600
C572        C  0.01388523  0.65998236  0.83718760    -0.05500
C573        C  0.04396841  0.65220191  0.85704497    -0.32500
C574        C  0.04275714  0.62815210  0.89004429     0.36500
H575        H  0.45665058  0.60999670  0.89548510     0.16900
O576        O  0.45164779  0.65336808  0.83514946    -0.60000
H577        H  0.06853774  0.66315016  0.84632513     0.16900
O578        O  0.07270050  0.61873258  0.90773525    -0.60100
H579        H  0.08101050  0.58992403  0.89722132     0.43900
H580        H  0.44046211  0.67853840  0.84856997     0.43900
N581        N  0.00482203  0.49802309  0.05454790    -0.36300
N582        N  0.00376245  0.42824516  0.49862486    -0.56900
N583        N  0.49981193  0.49797218  0.44446595    -0.36300
N584        N  0.50550719  0.56760137  0.50032766    -0.56900
C585        C  0.01489495  0.46225567  0.07437008     0.27300
C586        C  0.50753822  0.53481037  0.07590383     0.27300
C587        C  0.00082373  0.46097125  0.42302463     0.27300
C588        C  0.50969439  0.53313323  0.42370196     0.27300
C589        C  0.00442914  0.40182234  0.02837895     0.35900
C590        C  0.99435102  0.40219520  0.47032514     0.35900
C591        C  0.49750610  0.59364515  0.02954127     0.35900
C592        C  0.50345680  0.59386229  0.47053458     0.35900
C593        C  0.02417588  0.47682669  0.10877541    -0.21600
C594        C  0.51929893  0.52238623  0.10978846    -0.21600
C595        C  0.01097180  0.47280357  0.38812794    -0.21600
C596        C  0.51686074  0.51804625  0.38862232    -0.21600
C597        C  0.99635772  0.35827707  0.01873833    -0.22700
C598        C  0.98969382  0.35859329  0.48201589    -0.22700
C599        C  0.49085188  0.63702455  0.01828502    -0.22700
C600        C  0.49500542  0.63727678  0.48094574    -0.22700
C601        C  0.01239919  0.41649809  0.06400501    -0.18000
C602        C  0.49827208  0.57911656  0.06624326    -0.18000
C603        C  0.50923477  0.57903814  0.43419488    -0.18000
C604        C  0.99242899  0.41677440  0.43374144    -0.18000
H605        H  0.03259490  0.45668099  0.13138398     0.14900
H606        H  0.52378162  0.54387575  0.13296724     0.14900
H607        H  0.01410417  0.45106577  0.36468581     0.14900
H608        H  0.52478296  0.53772291  0.36539631     0.14900
H609        H  0.99513974  0.32939094  0.03634970     0.13200
H610        H  0.98281564  0.32989611  0.46569710     0.13200
H611        H  0.48420404  0.66560150  0.03522797     0.13200
H612        H  0.49164005  0.66594443  0.46343131     0.13200
H613        H  0.99247574  0.49703142  0.02982130     0.26400
H614        H  0.48905271  0.49964928  0.47036794     0.26400
O615        O  0.52788376  0.17292746  0.28899923    -0.85100
O616        O  0.95751911  0.17596647  0.27820856    -0.82100
C617        C  0.92912331  0.18971153  0.26624413     0.98400
O618        O  0.92809892  0.22376078  0.24617156    -0.82100
O619        O  0.95714360  0.29448188  0.28623607    -0.84800
C620        C  0.98164613  0.31642307  0.30006657     1.02900
O621        O  0.50938812  0.32040637  0.28211509    -0.77500
O622        O  0.53313875  0.24164899  0.31026111    -0.77700
C623        C  0.53235571  0.19973250  0.31499041     1.02900
O624        O  0.54003220  0.17673017  0.21333214    -0.85100
O625        O  0.97004477  0.17731857  0.20210640    -0.82100
C626        C  0.96970444  0.20553213  0.17680566     0.98400
O627        O  0.96793565  0.24714727  0.18365747    -0.82100
O628        O  0.98856086  0.32377138  0.21899222    -0.84800
C629        C  0.51505092  0.31971857  0.19922751     1.02900
O630        O  0.53980712  0.29647805  0.21108589    -0.77600
O631        O  0.57037347  0.22363132  0.24506341    -0.77700
C632        C  0.56877032  0.19086013  0.22356851     1.02900
Cr633      Cr  0.99890075  0.18025718  0.24585951     1.93700
Cr634      Cr  0.96237401  0.27057574  0.23479231     1.93200
Cr635      Cr  0.53592454  0.26902371  0.26099960     1.39100
O636        O  0.99905097  0.23941384  0.24756673    -1.22800
N637        N  0.79703667  0.99555246  0.25228997    -0.36300
N638        N  0.74301137  0.93080877  0.25759569    -0.56900
N639        N  0.69527390  0.00492106  0.25878988    -0.36300
N640        N  0.74885624  0.06979929  0.25427922    -0.56900
C641        C  0.81536744  0.95695916  0.24996577     0.27300
C642        C  0.81888253  0.02853755  0.26187381     0.27300
C643        C  0.67765268  0.97297842  0.27677992     0.27300
C644        C  0.67939018  0.04419326  0.26622101     0.27300
C645        C  0.76697668  0.90435640  0.24135133     0.35900
C646        C  0.71290383  0.90882931  0.25632474     0.35900
C647        C  0.77690301  0.09289609  0.26372637     0.35900
C648        C  0.72215158  0.09895716  0.25325712     0.35900
C649        C  0.84937399  0.96538140  0.25813230    -0.21600
C650        C  0.85164394  0.01034565  0.26537262    -0.21600
C651        C  0.65096246  0.99259507  0.29684439    -0.21600
C652        C  0.65207747  0.03784948  0.29009037    -0.21600
C653        C  0.75204817  0.86476010  0.23000147    -0.22700
C654        C  0.71768442  0.86751304  0.23971539    -0.22700
C655        C  0.76779075  0.13711152  0.27050201    -0.22700
C656        C  0.73304941  0.14078815  0.26460360    -0.22700
C657        C  0.80242120  0.91464686  0.23938576    -0.18000
C658        C  0.81059602  0.07478445  0.26618552    -0.18000
C659        C  0.68775029  0.08488443  0.24943536    -0.18000
C660        C  0.68160405  0.92664823  0.27015577    -0.18000
H661        H  0.87053129  0.94167826  0.25889081     0.14900
H662        H  0.87512621  0.02737142  0.27201858     0.14900
H663        H  0.63169768  0.97573816  0.31314345     0.14900
H664        H  0.63421636  0.06301941  0.30035676     0.14900
H665        H  0.76462737  0.83677681  0.21639969     0.13200
H666        H  0.69842660  0.84245344  0.23456703     0.13200
H667        H  0.78411329  0.16346145  0.28049087     0.13200
H668        H  0.71766408  0.16955332  0.27249669     0.13200
H669        H  0.77179256  0.99920544  0.24438027     0.26400
H670        H  0.71342621  0.99988342  0.23803292     0.26400
O671        O  0.51820034  0.82954535  0.20619859    -0.85100
O672        O  0.94880562  0.81755880  0.21795701    -0.82100
C673        C  0.92133962  0.80175757  0.23088999     0.98400
O674        O  0.92287803  0.76983220  0.25303684    -0.82100
O675        O  0.95809864  0.70145123  0.21374526    -0.84800
C676        C  0.98441716  0.68189003  0.19976104     1.02900
O677        O  0.51239639  0.68152301  0.21696953    -0.77500
O678        O  0.53351361  0.76136199  0.18853248    -0.77700
C679        C  0.52857303  0.80258329  0.18201620     1.02900
O680        O  0.52977860  0.83204165  0.28115449    -0.85100
O681        O  0.96014468  0.82199737  0.29429508    -0.82100
C682        C  0.96311640  0.79545933  0.32057909     0.98400
O683        O  0.96456667  0.75344137  0.31504285    -0.82100
O684        O  0.98932859  0.67633057  0.28033758    -0.84800
C685        C  0.51446852  0.68213842  0.30067375     1.02900
O686        O  0.53788254  0.70817050  0.28946265    -0.77600
O687        O  0.56513874  0.78376317  0.25496550    -0.77700
C688        C  0.55983871  0.81915307  0.27287864     1.02900
Cr689      Cr  0.98966905  0.82056225  0.24992758     1.93700
Cr690      Cr  0.96061767  0.72735011  0.26454317     1.93200
Cr691      Cr  0.53466608  0.73512257  0.23868095     1.39100
O692        O  0.99514612  0.76158560  0.25049750    -1.22800
N693        N  0.00896338  0.00209160  0.05341593    -0.36300
N694        N  0.00405712  0.93256548  0.49837806    -0.56900
N695        N  0.00667358  0.00007965  0.44224716    -0.36300
N696        N  0.00675679  0.06964113  0.49750125    -0.56900
C697        C  0.00584614  0.96526908  0.07437624     0.27300
C698        C  0.99882922  0.03800095  0.07369924     0.27300
C699        C  0.99513461  0.96507827  0.42239945     0.27300
C700        C  0.00439193  0.03720619  0.42153548     0.27300
C701        C  0.01406593  0.90688510  0.02649593     0.35900
C702        C  0.00447460  0.90575992  0.46867937     0.35900
C703        C  0.00884330  0.09644810  0.02694462     0.35900
C704        C  0.01628168  0.09468050  0.46878415     0.35900
C705        C  0.99438190  0.97785350  0.10881648    -0.21600
C706        C  0.98967543  0.02370930  0.10830845    -0.21600
C707        C  0.98597868  0.98030533  0.38823988    -0.21600
C708        C  0.99203584  0.02575935  0.38763676    -0.21600
C709        C  0.02092046  0.86360023  0.01451860    -0.22700
C710        C  0.01388402  0.86257968  0.47821377    -0.22700
C711        C  0.01888903  0.13904287  0.01679715    -0.22700
C712        C  0.02455497  0.13758523  0.48007663    -0.22700
C713        C  0.01397482  0.92082536  0.06328338    -0.18000
C714        C  0.00016000  0.08344402  0.06257941    -0.18000
C715        C  0.01419361  0.08083147  0.43225737    -0.18000
C716        C  0.99534369  0.91946046  0.43336842    -0.18000
H717        H  0.98967300  0.95619756  0.13182884     0.14900
H718        H  0.98119148  0.04424225  0.13108073     0.14900
H719        H  0.97669432  0.96063229  0.36572289     0.14900
H720        H  0.98772521  0.04789154  0.36490380     0.14900
H721        H  0.02935159  0.83519131  0.03028620     0.13200
H722        H  0.01601057  0.83323910  0.46103734     0.13200
H723        H  0.02198906  0.16824452  0.03383436     0.13200
H724        H  0.03274360  0.16551794  0.46356734     0.13200
H725        H  0.02093599  0.00264956  0.02805919     0.26400
H726        H  0.01905376  0.99844570  0.46696693     0.26400
C727        C  0.53217022  0.82183769  0.14572786    -0.05200
C728        C  0.55464621  0.85800125  0.14142455    -0.32600
C729        C  0.54910818  0.89015723  0.11453427     0.36600
C730        C  0.52067933  0.88646361  0.09156515    -0.05500
C731        C  0.99894567  0.84934690  0.09503680    -0.32500
C732        C  0.00487545  0.81680756  0.12149805     0.36500
H733        H  0.57499377  0.86315123  0.16077719     0.16900
O734        O  0.57108517  0.92564189  0.11139741    -0.60000
H735        H  0.97685003  0.84620295  0.07765656     0.16900
O736        O  0.98158975  0.78304755  0.12619547    -0.60100
H737        H  0.98998561  0.75839570  0.11016942     0.43900
H738        H  0.56433268  0.94652673  0.13133459     0.43900
C739        C  0.96888211  0.81624210  0.35625493    -0.05200
C740        C  0.94327023  0.84431787  0.37134141    -0.32600
C741        C  0.95152199  0.87743186  0.39689154     0.36600
C742        C  0.98598203  0.88392693  0.40669500    -0.05500
C743        C  0.51147661  0.85527653  0.39209568    -0.32500
C744        C  0.50300956  0.82091987  0.36789067     0.36500
H745        H  0.91710920  0.84209214  0.36185168     0.16900
O746        O  0.92589045  0.90385536  0.41170353    -0.60000
H747        H  0.53809348  0.85976753  0.39943864     0.16900
O748        O  0.52883075  0.79476747  0.35314660    -0.60100
H749        H  0.52786800  0.76622049  0.36675362     0.43900
H750        H  0.92039522  0.92618047  0.39273881     0.43900
C751        C  0.58903932  0.84909285  0.27792419    -0.05200
C752        C  0.61831020  0.83493857  0.29672267    -0.32600
C753        C  0.64878109  0.85985924  0.29486155     0.36600
C754        C  0.65031141  0.89846599  0.27302363    -0.05500
C755        C  0.62094315  0.91203856  0.25412774    -0.32500
C756        C  0.59044817  0.88822487  0.25694083     0.36500
H757        H  0.61767268  0.80425818  0.31230136     0.16900
O758        O  0.67660036  0.84687217  0.31485405    -0.60000
H759        H  0.62175905  0.94131647  0.23684883     0.16900
O760        O  0.56289531  0.90148826  0.23665402    -0.60100
H761        H  0.54912437  0.92149880  0.25287716     0.43900
H762        H  0.68601500  0.81982465  0.30241413     0.43900
C763        C  0.82802895  0.87878508  0.23027614    -0.05200
C764        C  0.85288033  0.88577768  0.20271260    -0.32600
C765        C  0.88272266  0.85908610  0.20050367     0.36600
C766        C  0.88752405  0.82403543  0.22551162    -0.05500
C767        C  0.86072328  0.81430120  0.25032780    -0.32500
C768        C  0.83170494  0.84183288  0.25340589     0.36500
H769        H  0.85041273  0.91427391  0.18479011     0.16900
O770        O  0.90790352  0.86962320  0.17561210    -0.60000
H771        H  0.86345681  0.78751348  0.26984931     0.16900
O772        O  0.80854394  0.83447909  0.28116673    -0.60100
H773        H  0.81641137  0.85326385  0.30166990     0.43900
H774        H  0.90358268  0.85017726  0.15428297     0.43900
C775        C  0.97529454  0.18734466  0.14020221    -0.05200
C776        C  0.50962038  0.17902662  0.12985428    -0.32600
C777        C  0.51808317  0.14488875  0.10505444     0.36600
C778        C  0.99187957  0.11964715  0.08919613    -0.05500
C779        C  0.95739414  0.13016903  0.09742709    -0.32500
C780        C  0.94904598  0.16320522  0.12335211     0.36500
H781        H  0.53016627  0.19625258  0.14353964     0.16900
O782        O  0.55197835  0.13442948  0.09809913    -0.60000
H783        H  0.93701943  0.11140634  0.08483889     0.16900
O784        O  0.91535998  0.17004466  0.13355127    -0.60100
H785        H  0.91061307  0.14736673  0.15253874     0.43900
H786        H  0.56162937  0.16068607  0.08523739     0.43900
C787        C  0.53391333  0.17959867  0.35086247    -0.05200
C788        C  0.55708959  0.14396140  0.35566978    -0.32600
C789        C  0.55085772  0.11169147  0.38218833     0.36600
C790        C  0.52102633  0.11475649  0.40400206    -0.05500
C791        C  0.99872651  0.15163789  0.40042909    -0.32500
C792        C  0.00532226  0.18438737  0.37434360     0.36500
H793        H  0.57872948  0.13945807  0.33708445     0.16900
O794        O  0.57368168  0.07688252  0.38626185    -0.60000
H795        H  0.97589925  0.15449178  0.41752514     0.16900
O796        O  0.98172833  0.21809338  0.36929633    -0.58700
H797        H  0.98936386  0.24296471  0.38508655     0.43900
H798        H  0.56681575  0.05403644  0.36819488     0.43900
C799        C  0.89747452  0.16297704  0.26989770    -0.05200
C800        C  0.87465036  0.16371234  0.24061766    -0.32600
C801        C  0.84642228  0.13555314  0.23973866     0.36600
C802        C  0.83947377  0.10694041  0.26906673    -0.05500
C803        C  0.86126786  0.10735560  0.29929796    -0.32500
C804        C  0.89059648  0.13454903  0.29951663     0.36500
H805        H  0.87961044  0.18467667  0.21718705     0.16900
O806        O  0.82612218  0.13541505  0.20954308    -0.60000
H807        H  0.85620390  0.08532815  0.32202395     0.16900
O808        O  0.91257179  0.13238053  0.32825892    -0.60100
H809        H  0.90508629  0.15689771  0.34489559     0.43900
H810        H  0.83558483  0.11111630  0.19379952     0.43900
C811        C  0.60063488  0.16514928  0.21607252    -0.05200
C812        C  0.59908252  0.11852831  0.21394923    -0.32600
C813        C  0.62801366  0.09219571  0.22175934     0.36600
C814        C  0.65911794  0.11265070  0.23288573    -0.05500
C815        C  0.66204715  0.15894137  0.22629982    -0.32500
C816        C  0.63295359  0.18530617  0.21942204     0.36500
H817        H  0.57482502  0.10222054  0.20897595     0.16900
O818        O  0.62598307  0.04659864  0.21717404    -0.60000
H819        H  0.68623731  0.17580443  0.22675864     0.16900
O820        O  0.63619645  0.23090358  0.21678094    -0.60100
H821        H  0.63991631  0.24165942  0.24195350     0.43900
H822        H  0.60661619  0.03655023  0.23288008     0.43900
C823        C  0.51379721  0.38329711  0.09404886    -0.05200
C824        C  0.98315529  0.37351456  0.11241135    -0.32600
C825        C  0.98344784  0.35221572  0.14609028     0.36600
C826        C  0.51500571  0.34008623  0.16234440    -0.05500
C827        C  0.54569381  0.34701403  0.14261756    -0.32500
C828        C  0.54521019  0.36856807  0.10866293     0.36500
H829        H  0.95884463  0.38453972  0.10138363     0.16900
O830        O  0.95249960  0.34327576  0.16275726    -0.60000
H831        H  0.57010109  0.33715809  0.15403399     0.16900
O832        O  0.57560932  0.37764133  0.09106057    -0.60100
H833        H  0.58014119  0.35127187  0.07518837     0.43900
H834        H  0.94506532  0.37188456  0.17430885     0.43900
C835        C  0.98047000  0.33620820  0.33733976    -0.05200
C836        C  0.51073332  0.33396852  0.35786496    -0.32600
C837        C  0.51372358  0.35703112  0.39078949     0.36600
C838        C  0.98634260  0.38357445  0.40400288    -0.05500
C839        C  0.95532223  0.38430712  0.38465335    -0.32500
C840        C  0.95214172  0.36046207  0.35164669     0.36500
H841        H  0.53291257  0.31548767  0.34765660     0.16900
O842        O  0.54432149  0.35559158  0.40881504    -0.60000
H843        H  0.93413178  0.40513170  0.39428517     0.16900
O844        O  0.92213407  0.36329211  0.33269601    -0.60100
H845        H  0.92345900  0.39196778  0.31929370     0.43900
H846        H  0.55813072  0.38029843  0.39841212     0.43900
C847        C  0.99186359  0.61165918  0.09674409    -0.05200
C848        C  0.96146493  0.60898262  0.11789937    -0.32600
C849        C  0.95760312  0.63314939  0.15076356     0.36600
C850        C  0.98457771  0.66003598  0.16318907    -0.05500
C851        C  0.51444211  0.66364717  0.14124538    -0.32500
C852        C  0.51809225  0.64010450  0.10835616     0.36500
H853        H  0.94126708  0.58656118  0.10964038     0.16900
O854        O  0.92829221  0.62819636  0.17140141    -0.60000
H855        H  0.53564258  0.68401727  0.15012774     0.16900
O856        O  0.54846842  0.64247389  0.08912751    -0.60100
H857        H  0.54566557  0.66841522  0.07268359     0.43900
H858        H  0.93282622  0.60194254  0.18708517     0.43900
C859        C  0.51112300  0.61251028  0.40408751    -0.05200
C860        C  0.98107493  0.62228581  0.38532465    -0.32600
C861        C  0.48210361  0.64572203  0.35251574     0.36600
C862        C  0.51388678  0.65998269  0.33719087    -0.05500
C863        C  0.54396958  0.65220332  0.35704915    -0.32500
C864        C  0.54275771  0.62815473  0.39004903     0.36500
H865        H  0.95665096  0.60999516  0.39548194     0.16900
O866        O  0.95164784  0.65336819  0.33514698    -0.60000
H867        H  0.56853906  0.66315131  0.34632959     0.16900
O868        O  0.57270073  0.61873608  0.40774094    -0.60100
H869        H  0.58100914  0.58992472  0.39723076     0.43900
H870        H  0.94046294  0.67853873  0.34856797     0.43900
N871        N  0.00482114  0.49802378  0.55454796    -0.36300
N872        N  0.00376367  0.42824462  0.99862474    -0.56900
N873        N  0.49981240  0.49797183  0.94446580    -0.36300
N874        N  0.50550745  0.56760085  0.00032749    -0.56900
C875        C  0.01489395  0.46225630  0.57437011     0.27300
C876        C  0.50753786  0.53481110  0.57590389     0.27300
C877        C  0.00082416  0.46097105  0.92302447     0.27300
C878        C  0.50969424  0.53313305  0.92370167     0.27300
C879        C  0.00442785  0.40182294  0.52837908     0.35900
C880        C  0.99435228  0.40219470  0.97032498     0.35900
C881        C  0.49750586  0.59364584  0.52954132     0.35900
C882        C  0.50345684  0.59386190  0.97053448     0.35900
C883        C  0.02417493  0.47682727  0.60877544    -0.21600
C884        C  0.51929849  0.52238688  0.60978853    -0.21600
C885        C  0.01097150  0.47280355  0.88812760    -0.21600
C886        C  0.51686004  0.51804623  0.88862187    -0.21600
C887        C  0.99635630  0.35827768  0.51873854    -0.22700
C888        C  0.98969526  0.35859272  0.98201566    -0.22700
C889        C  0.49085179  0.63702526  0.51828496    -0.22700
C890        C  0.49500537  0.63727631  0.98094579    -0.22700
C891        C  0.01239806  0.41649872  0.56400505    -0.18000
C892        C  0.49827192  0.57911737  0.56624331    -0.18000
C893        C  0.50923460  0.57903792  0.93419469    -0.18000
C894        C  0.99242981  0.41677409  0.93374134    -0.18000
H895        H  0.03259389  0.45668148  0.63138397     0.14900
H896        H  0.52378135  0.54387639  0.63296728     0.14900
H897        H  0.01410366  0.45106581  0.86468540     0.14900
H898        H  0.52478166  0.53772302  0.86539571     0.14900
H899        H  0.99513829  0.32939155  0.53634991     0.13200
H900        H  0.98281712  0.32989555  0.96569683     0.13200
H901        H  0.48420402  0.66560237  0.53522778     0.13200
H902        H  0.49163986  0.66594404  0.96343147     0.13200
H903        H  0.99247493  0.49703223  0.52982132     0.26400
H904        H  0.48905363  0.49964869  0.97036799     0.26400
O905        O  0.52788356  0.17292761  0.78899885    -0.85100
O906        O  0.95751886  0.17596657  0.77820862    -0.82100
C907        C  0.92912297  0.18971159  0.76624438     0.98400
O908        O  0.92809842  0.22376077  0.74617174    -0.82100
O909        O  0.95714314  0.29448199  0.78623605    -0.84800
C910        C  0.98164573  0.31642324  0.80006639     1.02900
O911        O  0.50938763  0.32040653  0.78211467    -0.77500
O912        O  0.53313842  0.24164908  0.81026083    -0.77700
C913        C  0.53235564  0.19973257  0.81499006     1.02900
O914        O  0.54003167  0.17673039  0.71333165    -0.85100
O915        O  0.97004395  0.17731865  0.70210645    -0.82100
C916        C  0.96970361  0.20553210  0.67680565     0.98400
O917        O  0.96793480  0.24714726  0.68365739    -0.82100
O918        O  0.98855992  0.32377148  0.71899198    -0.84800
C919        C  0.51505025  0.31971851  0.69922720     1.02900
O920        O  0.53980653  0.29647812  0.71108558    -0.77600
O921        O  0.57037297  0.22363147  0.74506296    -0.77700
C922        C  0.56876981  0.19086034  0.72356799     1.02900
Cr923      Cr  0.99890029  0.18025737  0.74585928     1.93700
Cr924      Cr  0.96237331  0.27057578  0.73479226     1.93200
Cr925      Cr  0.53592405  0.26902382  0.76099927     1.39100
O926        O  0.99905039  0.23941403  0.74756655    -1.22800
N927        N  0.79703606  0.99555349  0.75229019    -0.36300
N928        N  0.74301102  0.93080962  0.75759589    -0.56900
N929        N  0.69527351  0.00492192  0.75879070    -0.36300
N930        N  0.74885561  0.06980012  0.75428057    -0.56900
C931        C  0.81536685  0.95696022  0.74996582     0.27300
C932        C  0.81888187  0.02853838  0.76187465     0.27300
C933        C  0.67765247  0.97297913  0.77678075     0.27300
C934        C  0.67938977  0.04419405  0.76622206     0.27300
C935        C  0.76697617  0.90435765  0.74135080     0.35900
C936        C  0.71290346  0.90883026  0.75632482     0.35900
C937        C  0.77690247  0.09289704  0.76372717     0.35900
C938        C  0.72215103  0.09895807  0.75325798     0.35900
C939        C  0.84937329  0.96538227  0.75813287    -0.21600
C940        C  0.85164322  0.01034638  0.76537372    -0.21600
C941        C  0.65096234  0.99259563  0.79684545    -0.21600
C942        C  0.65207719  0.03785009  0.79009154    -0.21600
C943        C  0.75204757  0.86476170  0.73000034    -0.22700
C944        C  0.71768391  0.86751441  0.73971469    -0.22700
C945        C  0.76779036  0.13711269  0.77050207    -0.22700
C946        C  0.73304901  0.14078934  0.76460365    -0.22700
C947        C  0.80242069  0.91464812  0.73938519    -0.18000
C948        C  0.81059542  0.07478528  0.76618643    -0.18000
C949        C  0.68774972  0.08488529  0.74943640    -0.18000
C950        C  0.68160380  0.92664898  0.77015632    -0.18000
H951        H  0.87053053  0.94167908  0.75889139     0.14900
H952        H  0.87512547  0.02737196  0.77202012     0.14900
H953        H  0.63169771  0.97573858  0.81314459     0.14900
H954        H  0.63421603  0.06301989  0.80035805     0.14900
H955        H  0.76462666  0.83677876  0.71639794     0.13200
H956        H  0.69842604  0.84245496  0.73456611     0.13200
H957        H  0.78411303  0.16346279  0.78049041     0.13200
H958        H  0.71766379  0.16955480  0.77249626     0.13200
H959        H  0.77179212  0.99920662  0.74438003     0.26400
H960        H  0.71342570  0.99988447  0.73803360     0.26400
O961        O  0.51820057  0.82954632  0.70619887    -0.85100
O962        O  0.94880557  0.81756062  0.71795677    -0.82100
C963        C  0.92133943  0.80175936  0.73088937     0.98400
O964        O  0.92287758  0.76983380  0.75303607    -0.82100
O965        O  0.95809832  0.70145261  0.71374490    -0.84800
C966        C  0.98441685  0.68189114  0.69976095     1.02900
O967        O  0.51239584  0.68152393  0.71696985    -0.77500
O968        O  0.53351334  0.76136279  0.68853277    -0.77700
C969        C  0.52857310  0.80258414  0.68201648     1.02900
O970        O  0.52977831  0.83204254  0.78115488    -0.85100
O971        O  0.96014423  0.82199879  0.79429489    -0.82100
C972        C  0.96311550  0.79546055  0.82057883     0.98400
O973        O  0.96456559  0.75344263  0.81504248    -0.82100
O974        O  0.98932751  0.67633178  0.78033780    -0.84800
C975        C  0.51446754  0.68213941  0.80067396     1.02900
O976        O  0.53788168  0.70817137  0.78946293    -0.77600
O977        O  0.56513837  0.78376392  0.75496596    -0.77700
C978        C  0.55983840  0.81915386  0.77287909     1.02900
Cr979      Cr  0.98966890  0.82056348  0.74992758     1.93700
Cr980      Cr  0.96061699  0.72735150  0.76454282     1.93200
Cr981      Cr  0.53466556  0.73512346  0.73868126     1.39100
O982        O  0.99514570  0.76158676  0.75049751    -1.22800
N983        N  0.00896312  0.00209151  0.55341594    -0.36300
N984        N  0.00405754  0.93256555  0.99837825    -0.56900
N985        N  0.00667452  0.00007944  0.94224699    -0.36300
N986        N  0.00675752  0.06964110  0.99750089    -0.56900
C987        C  0.00584568  0.96526884  0.57437606     0.27300
C988        C  0.99882881  0.03800068  0.57369939     0.27300
C989        C  0.99513552  0.96507803  0.92239934     0.27300
C990        C  0.00439328  0.03720586  0.92153512     0.27300
C991        C  0.01406585  0.90688510  0.52649564     0.35900
C992        C  0.00447474  0.90575985  0.96867964     0.35900
C993        C  0.00884280  0.09644801  0.52694503     0.35900
C994        C  0.01628267  0.09468034  0.96878379     0.35900
C995        C  0.99438112  0.97785298  0.60881625    -0.21600
C996        C  0.98967470  0.02370878  0.60830843    -0.21600
C997        C  0.98598010  0.98030491  0.88823955    -0.21600
C998        C  0.99203753  0.02575886  0.88763628    -0.21600
C999        C  0.02092087  0.86360038  0.51451818    -0.22700
C1000       C  0.01388368  0.86257952  0.97821420    -0.22700
C1001       C  0.01888842  0.13904284  0.51679758    -0.22700
C1002       C  0.02455596  0.13758507  0.98007627    -0.22700
C1003       C  0.01397461  0.92082525  0.56328311    -0.18000
C1004       C  0.00015964  0.08344379  0.56257979    -0.18000
C1005       C  0.01419488  0.08083121  0.93225698    -0.18000
C1006       C  0.99534401  0.91946031  0.93336860    -0.18000
H1007       H  0.98967198  0.95619684  0.63182842     0.14900
H1008       H  0.98119051  0.04424155  0.63108072     0.14900
H1009       H  0.97669583  0.96063178  0.86572256     0.14900
H1010       H  0.98772728  0.04789094  0.86490317     0.14900
H1011       H  0.02935237  0.83519158  0.53028572     0.13200
H1012       H  0.01600996  0.83323882  0.96103789     0.13200
H1013       H  0.02198850  0.16824444  0.53383483     0.13200
H1014       H  0.03274492  0.16551764  0.96356700     0.13200
H1015       H  0.02093587  0.00264965  0.52805932     0.26400
H1016       H  0.01905437  0.99844553  0.96696697     0.26400
C1017       C  0.53217046  0.82183849  0.64572813    -0.05200
C1018       C  0.55464610  0.85800246  0.64142497    -0.32600
C1019       C  0.54910806  0.89015808  0.61453442     0.36600
C1020       C  0.52067957  0.88646373  0.59156490    -0.05500
C1021       C  0.99894606  0.84934643  0.59503634    -0.32500
C1022       C  0.00487591  0.81680737  0.62149781     0.36500
H1023       H  0.57499337  0.86315299  0.66077786     0.16900
O1024       O  0.57108466  0.92564317  0.61139771    -0.60000
H1025       H  0.97685062  0.84620201  0.57765589     0.16900
O1026       O  0.98159047  0.78304705  0.62619518    -0.60100
H1027       H  0.98998610  0.75839568  0.61016855     0.43900
H1028       H  0.56433200  0.94652769  0.63133502     0.43900
C1029       C  0.96888120  0.81624287  0.85625481    -0.05200
C1030       C  0.94326968  0.84431923  0.87134122    -0.32600
C1031       C  0.95152186  0.87743280  0.89689155     0.36600
C1032       C  0.98598193  0.88392679  0.90669532    -0.05500
C1033       C  0.51147591  0.85527572  0.89209621    -0.32500
C1034       C  0.50300847  0.82091935  0.86789109     0.36500
H1035       H  0.91710869  0.84209438  0.86185124     0.16900
O1036       O  0.92589075  0.90385720  0.91170327    -0.60000
H1037       H  0.53809281  0.85976602  0.89943937     0.16900
O1038       O  0.52882935  0.79476644  0.85314699    -0.60100
H1039       H  0.52786655  0.76621964  0.86675428     0.43900
H1040       H  0.92039602  0.92618228  0.89273838     0.43900
C1041       C  0.58903906  0.84909362  0.77792461    -0.05200
C1042       C  0.61830994  0.83493935  0.79672315    -0.32600
C1043       C  0.64878085  0.85986000  0.79486206     0.36600
C1044       C  0.65031116  0.89846678  0.77302419    -0.05500
C1045       C  0.62094295  0.91203936  0.75412824    -0.32500
C1046       C  0.59044800  0.88822559  0.75694116     0.36500
H1047       H  0.61767246  0.80425892  0.81230176     0.16900
O1048       O  0.67660021  0.84687271  0.81485433    -0.60000
H1049       H  0.62175889  0.94131730  0.73684936     0.16900
O1050       O  0.56289526  0.90148894  0.73665416    -0.60100
H1051       H  0.54912403  0.92149908  0.75287732     0.43900
H1052       H  0.68601496  0.81982558  0.80241394     0.43900
C1053       C  0.82802852  0.87878654  0.73027511    -0.05200
C1054       C  0.85288045  0.88578019  0.70271228    -0.32600
C1055       C  0.88272289  0.85908879  0.70050340     0.36600
C1056       C  0.88752385  0.82403720  0.72551063    -0.05500
C1057       C  0.86072256  0.81430193  0.75032591    -0.32500
C1058       C  0.83170410  0.84183343  0.75340402     0.36500
H1059       H  0.85041322  0.91427713  0.68479047     0.16900
O1060       O  0.90790424  0.86962699  0.67561269    -0.60000
H1061       H  0.86345572  0.78751350  0.76984685     0.16900
O1062       O  0.80854266  0.83447861  0.78116425    -0.60100
H1063       H  0.81640955  0.85326295  0.80166793     0.43900
H1064       H  0.90358462  0.85018083  0.65428342     0.43900
C1065       C  0.97529371  0.18734449  0.64020226    -0.05200
C1066       C  0.50961985  0.17902693  0.62985422    -0.32600
C1067       C  0.51808285  0.14488891  0.60505457     0.36600
C1068       C  0.99187907  0.11964672  0.58919658    -0.05500
C1069       C  0.95739359  0.13016809  0.59742770    -0.32500
C1070       C  0.94904526  0.16320442  0.62335253     0.36500
H1071       H  0.53016563  0.19625336  0.64353939     0.16900
O1072       O  0.55197807  0.13443003  0.59809917    -0.60000
H1073       H  0.93701901  0.11140491  0.58483974     0.16900
O1074       O  0.91535928  0.17004319  0.63355205    -0.60100
H1075       H  0.91061288  0.14736533  0.65253969     0.43900
H1076       H  0.56162890  0.16068676  0.58523755     0.43900
C1077       C  0.53391373  0.17959855  0.85086205    -0.05200
C1078       C  0.55708984  0.14396095  0.85566885    -0.32600
C1079       C  0.55085821  0.11169101  0.88218749     0.36600
C1080       C  0.52102719  0.11475634  0.90400179    -0.05500
C1081       C  0.99872779  0.15163798  0.90042914    -0.32500
C1082       C  0.00532324  0.18438755  0.87434365     0.36500
H1083       H  0.57872939  0.13945741  0.83708310     0.16900
O1084       O  0.57368202  0.07688178  0.88626054    -0.60000
H1085       H  0.97590084  0.15449203  0.91752561     0.16900
O1086       O  0.98172940  0.21809386  0.86929706    -0.58700
H1087       H  0.98936479  0.24296451  0.88508808     0.43900
H1088       H  0.56681638  0.05403642  0.86819285     0.43900
C1089       C  0.89747424  0.16297715  0.76989814    -0.05200
C1090       C  0.87465013  0.16371226  0.74061805    -0.32600
C1091       C  0.84642194  0.13555334  0.73973923     0.36600
C1092       C  0.83947325  0.10694107  0.76906751    -0.05500
C1093       C  0.86126731  0.10735639  0.79929878    -0.32500
C1094       C  0.89059608  0.13454952  0.79951728     0.36500
H1095       H  0.87961033  0.18467625  0.71718728     0.16900
O1096       O  0.82612184  0.13541516  0.70954363    -0.60000
H1097       H  0.85620317  0.08532924  0.82202491     0.16900
O1098       O  0.91257139  0.13238113  0.82825959    -0.60100
H1099       H  0.90508546  0.15689778  0.84489658     0.43900
H1100       H  0.83558444  0.11111635  0.69380013     0.43900
C1101       C  0.60063434  0.16514940  0.71607213    -0.05200
C1102       C  0.59908194  0.11852838  0.71394965    -0.32600
C1103       C  0.62801307  0.09219596  0.72176023     0.36600
C1104       C  0.65911736  0.11265119  0.73288637    -0.05500
C1105       C  0.66204660  0.15894172  0.72629977    -0.32500
C1106       C  0.63295306  0.18530636  0.71942145     0.36500
H1107       H  0.57482441  0.10222052  0.70897669     0.16900
O1108       O  0.62598243  0.04659879  0.71717564    -0.60000
H1109       H  0.68623674  0.17580483  0.72675843     0.16900
O1110       O  0.63619592  0.23090369  0.71677960    -0.60100
H1111       H  0.63991572  0.24166020  0.74195202     0.43900
H1112       H  0.60661548  0.03655081  0.73288177     0.43900
C1113       C  0.51379631  0.38329775  0.59404888    -0.05200
C1114       C  0.98315422  0.37351513  0.61241129    -0.32600
C1115       C  0.98344681  0.35221609  0.64609012     0.36600
C1116       C  0.51500496  0.34008624  0.66234412    -0.05500
C1117       C  0.54569302  0.34701427  0.64261727    -0.32500
C1118       C  0.54520932  0.36856860  0.60866277     0.36500
H1119       H  0.95884354  0.38454034  0.60138362     0.16900
O1120       O  0.95249860  0.34327594  0.66275706    -0.60000
H1121       H  0.57010034  0.33715835  0.65403360     0.16900
O1122       O  0.57560838  0.37764191  0.59106030    -0.60100
H1123       H  0.58014088  0.35127162  0.57518913     0.43900
H1124       H  0.94506432  0.37188461  0.67430883     0.43900
C1125       C  0.98046988  0.33620826  0.83733962    -0.05200
C1126       C  0.51073339  0.33396861  0.85786442    -0.32600
C1127       C  0.51372388  0.35703102  0.89078900     0.36600
C1128       C  0.98634308  0.38357427  0.90400277    -0.05500
C1129       C  0.95532252  0.38430707  0.88465356    -0.32500
C1130       C  0.95214174  0.36046216  0.85164685     0.36500
H1131       H  0.53291260  0.31548794  0.84765574     0.16900
O1132       O  0.54432199  0.35559167  0.90881419    -0.60000
H1133       H  0.93413217  0.40513165  0.89428565     0.16900
O1134       O  0.92213398  0.36329235  0.83269638    -0.60100
H1135       H  0.92345868  0.39196835  0.81929450     0.43900
H1136       H  0.55813157  0.38029736  0.89840996     0.43900
C1137       C  0.99186341  0.61166004  0.59674404    -0.05200
C1138       C  0.96146456  0.60898405  0.61789908    -0.32600
C1139       C  0.95760278  0.63315084  0.65076326     0.36600
C1140       C  0.98457758  0.66003693  0.66318901    -0.05500
C1141       C  0.51444242  0.66364752  0.64124569    -0.32500
C1142       C  0.51809253  0.64010490  0.60835643     0.36500
H1143       H  0.94126652  0.58656300  0.60963989     0.16900
O1144       O  0.92829167  0.62819826  0.67140088    -0.60000
H1145       H  0.53564308  0.68401712  0.65012835     0.16900
O1146       O  0.54846887  0.64247375  0.58912803    -0.60100
H1147       H  0.54566627  0.66841481  0.57268380     0.43900
H1148       H  0.93282532  0.60194438  0.68708468     0.43900
C1149       C  0.51112258  0.61251020  0.90408739    -0.05200
C1150       C  0.98107437  0.62228567  0.88532465    -0.32600
C1151       C  0.48210289  0.64572216  0.85251587     0.36600
C1152       C  0.51388597  0.65998324  0.83719097    -0.05500
C1153       C  0.54396889  0.65220380  0.85704911    -0.32500
C1154       C  0.54275721  0.62815486  0.89004885     0.36500
H1155       H  0.95665049  0.60999476  0.89548197     0.16900
O1156       O  0.95164696  0.65336835  0.83514728    -0.60000
H1157       H  0.56853832  0.66315196  0.84632954     0.16900
O1158       O  0.57270032  0.61873602  0.90774056    -0.60100
H1159       H  0.58100852  0.58992456  0.89723041     0.43900
H1160       H  0.94046237  0.67853916  0.84856815     0.43900
loop_ 
_geom_bond_atom_site_label_1 
_geom_bond_atom_site_label_2 
_geom_bond_distance 
_geom_bond_site_symmetry_2 
_ccdc_geom_bond_type 
N1           H33   1.035       .  S
N1            C5   1.355       .  A
N1          C586   1.354       .  A
N2           C10   1.354       .  A
N2          C299   1.353       .  A
N3           H34   1.036       .  S
N3            C8   1.357   1_655  A
N3          C587   1.355   1_655  A
N4           C12   1.354       .  A
N4          C301   1.355   1_455  A
C5           C13   1.391       .  A
C5           C21   1.422       .  A
C6          N581   1.354       .  A
C6           C22   1.417   1_455  A
C6           C14   1.385       .  A
C7          N583   1.355       .  A
C7           C15   1.386       .  A
C7           C24   1.419       .  A
C8           C23   1.423       .  A
C8           C16   1.389       .  A
C9          N292   1.353   1_554  A
C9           C21   1.420       .  A
C9           C17   1.387       .  A
C10          C24   1.419       .  A
C10          C18   1.386       .  A
C11         N294   1.355   1_655  A
C11          C19   1.386       .  A
C11          C22   1.421       .  A
C12          C20   1.386   1_455  A
C12          C23   1.421       .  A
C13         C594   1.373       .  A
C13          H25   1.082       .  S
C14         C593   1.373       .  A
C14          H26   1.082       .  S
C15         C596   1.373       .  A
C15          H27   1.082       .  S
C16         C595   1.373       .  A
C16          H28   1.082       .  S
C17         C308   1.380   1_554  A
C17          H29   1.082       .  S
C18         C307   1.380       .  A
C18          H30   1.082       .  S
C19         C310   1.381   1_554  A
C19          H31   1.082       .  S
C20         C309   1.381       .  A
C20          H32   1.082       .  S
C21         C823   1.490       .  S
C22         C847   1.498       .  S
C23         C279   1.497       .  S
C24         C258   1.497       .  S
O35          C43   1.260       .  A
O35        Cr633   1.972   1_455  S
O36          C37   1.261       .  A
O36         Cr53   1.994       .  S
C37         C219   1.479       .  S
C37          O38   1.260       .  A
O38         Cr54   1.983       .  S
O39          C40   1.273       .  A
O39         Cr54   2.027       .  S
C40         C255   1.491       .  S
C40         O621   1.264       .  A
O41         C620   1.264   1_455  A
O41         Cr55   1.991       .  S
O42          C43   1.266       .  A
O42         Cr55   1.994       .  S
C43         C207   1.455       .  S
O44          C52   1.261       .  A
O44        Cr633   1.987   1_455  S
O45          C46   1.259       .  A
O45         Cr53   1.978       .  S
C46         C195   1.463       .  S
C46          O47   1.269       .  A
O47         Cr54   2.013       .  S
O48         C629   1.258       .  A
O48         Cr54   1.980       .  S
C49         C246   1.490       .  S
C49          O50   1.266       .  A
C49         O628   1.258   1_455  A
O50         Cr55   2.019       .  S
O51          C52   1.258       .  A
O51         Cr55   1.980       .  S
C52         C231   1.475       .  S
Cr53        O615   1.972       .  S
Cr53        O624   1.987       .  S
Cr53         O56   1.768       .  S
Cr54         O56   1.768       .  S
Cr55        O636   1.768   1_455  S
O56        Cr635   1.768       .  S
N57          H89   1.034       .  S
N57          C62   1.356   1_565  A
N57          C61   1.352       .  A
N58          C65   1.349       .  A
N58          C66   1.350       .  A
N59          H90   1.042   1_545  S
N59          C64   1.346       .  A
N59          C63   1.350   1_545  A
N60          C67   1.346       .  A
N60          C68   1.351       .  A
C61          C69   1.386       .  A
C61          C77   1.420       .  A
C62          C78   1.424       .  A
C62          C70   1.390       .  A
C63          C71   1.390       .  A
C63          C80   1.411       .  A
C64          C79   1.405       .  A
C64          C72   1.384       .  A
C65          C77   1.417       .  A
C65          C73   1.388       .  A
C66          C80   1.412       .  A
C66          C74   1.385       .  A
C67          C75   1.385       .  A
C67          C78   1.418       .  A
C68          C76   1.388       .  A
C68          C79   1.416       .  A
C69          C70   1.372   1_565  A
C69          H81   1.082       .  S
C70          H82   1.080       .  S
C71          C72   1.377   1_565  A
C71          H83   1.082       .  S
C72          H84   1.083       .  S
C73          C74   1.381       .  A
C73          H85   1.082       .  S
C74          H86   1.082       .  S
C75          C76   1.376       .  A
C75          H87   1.082       .  S
C76          H88   1.079       .  S
C77         C183   1.491       .  S
C78         C222   1.490       .  S
C79         C234   1.519       .  S
C80         C174   1.489       .  S
O91          C99   1.257       .  A
O91        Cr689   1.963   1_455  S
O92          C93   1.260       .  A
O92        Cr109   1.994       .  S
C93         C186   1.486       .  S
C93          O94   1.259       .  A
O94        Cr110   1.984       .  S
O95          C96   1.276       .  A
O95        Cr110   2.024       .  S
C96         C270   1.493       .  S
C96         O677   1.267       .  A
O97         C676   1.267   1_455  A
O97        Cr111   1.997       .  S
O98          C99   1.269       .  A
O98        Cr111   2.009       .  S
C99         C147   1.462       .  S
O100        C108   1.261       .  A
O100       Cr689   1.983   1_455  S
O101        C102   1.259       .  A
O101       Cr109   1.983       .  S
C102        C159   1.471       .  S
C102        O103   1.272       .  A
O103       Cr110   2.020       .  S
O104        C685   1.253       .  A
O104       Cr110   1.976       .  S
C105        C282   1.500       .  S
C105        O106   1.269       .  A
C105        O684   1.253   1_455  A
O106       Cr111   2.043       .  S
O107        C108   1.257       .  A
O107       Cr111   1.980       .  S
C108        C171   1.466       .  S
Cr109       O671   1.963       .  S
Cr109       O680   1.983       .  S
Cr109       O112   1.773       .  S
Cr110       O112   1.769       .  S
Cr111       O692   1.771   1_455  S
O112       Cr691   1.771       .  S
N113        H145   1.037       .  S
N113        C118   1.357       .  A
N113        C117   1.352   1_545  A
N114        C122   1.352       .  A
N114        C411   1.351       .  A
N115        H146   1.037   1_545  S
N115        C120   1.351       .  A
N115        C119   1.356   1_545  A
N116        C124   1.347       .  A
N116        C413   1.348       .  A
C117        C125   1.387       .  A
C117        C133   1.419       .  A
C118        C134   1.421       .  A
C118        C126   1.388       .  A
C119        C127   1.389       .  A
C119        C136   1.423       .  A
C120        C135   1.417       .  A
C120        C128   1.386       .  A
C121        N404   1.351   1_554  A
C121        C133   1.414       .  A
C121        C129   1.387       .  A
C122        C136   1.413       .  A
C122        C130   1.386       .  A
C123        N406   1.348   1_554  A
C123        C131   1.386       .  A
C123        C134   1.407       .  A
C124        C132   1.388       .  A
C124        C135   1.408       .  A
C125        C126   1.381   1_565  A
C125        H137   1.082       .  S
C126        H138   1.082       .  S
C127        C128   1.381   1_565  A
C127        H139   1.082       .  S
C128        H140   1.083       .  S
C129        C420   1.368   1_554  A
C129        H141   1.081       .  S
C130        C419   1.368       .  A
C130        H142   1.080       .  S
C131        C422   1.366   1_554  A
C131        H143   1.081       .  S
C132        C421   1.366       .  A
C132        H144   1.082       .  S
C133        C730   1.489       .  S
C134        C198   1.486       .  S
C135        C790   1.478       .  S
C136        C162   1.494       .  S
C147        C148   1.404       .  A
C147        C732   1.405       .  A
C148        C149   1.400       .  A
C148        H153   1.084       .  S
C149        C150   1.407       .  A
C149        O154   1.372       .  S
C150        C731   1.406   1_455  A
C150        C713   1.489       .  S
C151        C152   1.399       .  A
C151        C730   1.406       .  A
C151        H155   1.084       .  S
C152        C727   1.405       .  A
C152        O156   1.372       .  S
O154        H158   0.992       .  S
O156        H157   0.992       .  S
C159        C160   1.404       .  A
C159        C744   1.409       .  A
C160        C161   1.404       .  A
C160        H165   1.084       .  S
C161        C162   1.409       .  A
C161        O166   1.372       .  S
C162        C743   1.404       .  A
C163        C164   1.401       .  A
C163        C742   1.404   1_455  A
C163        H167   1.084       .  S
C164        C739   1.409   1_455  A
C164        O168   1.372       .  S
O166        H170   0.992       .  S
O168        H169   0.992       .  S
C171        C172   1.404       .  A
C171        C176   1.405       .  A
C172        C173   1.407       .  A
C172        H177   1.083       .  S
C173        C174   1.410       .  A
C173        O178   1.372       .  S
C174        C175   1.404       .  A
C175        C176   1.392       .  A
C175        H179   1.084       .  S
C176        O180   1.372       .  S
O178        H182   0.992       .  S
O180        H181   0.991       .  S
C183        C184   1.409       .  A
C183        C188   1.404       .  A
C184        C185   1.404       .  A
C184        H189   1.084       .  S
C185        C186   1.410       .  A
C185        O190   1.371       .  S
C186        C187   1.409       .  A
C187        C188   1.394       .  A
C187        H191   1.083       .  S
C188        O192   1.372       .  S
O190        H194   0.992       .  S
O192        H193   0.992       .  S
C195        C200   1.406       .  A
C195        C776   1.404       .  A
C196        C197   1.400       .  A
C196        C775   1.404   1_455  A
C196        H201   1.084       .  S
C197        C778   1.406   1_455  A
C197        O202   1.373       .  S
C198        C199   1.404       .  A
C198        C777   1.406       .  A
C199        C200   1.402       .  A
C199        H203   1.083       .  S
C200        O204   1.372       .  S
O202        H206   0.992       .  S
O204        H205   0.992       .  S
C207        C208   1.403       .  A
C207        C792   1.405       .  A
C208        C209   1.395       .  A
C208        H213   1.084       .  S
C209        C210   1.404       .  A
C209        O214   1.372       .  S
C210        C791   1.404   1_455  A
C210        C715   1.478       .  S
C211        C212   1.396       .  A
C211        C790   1.404       .  A
C211        H215   1.084       .  S
C212        C787   1.405       .  A
C212        O216   1.372       .  S
O214        H218   0.992       .  S
O216        H217   0.992       .  S
C219        C220   1.406       .  A
C219        C224   1.409       .  A
C220        C221   1.390       .  A
C220        H225   1.084       .  S
C221        C222   1.404       .  A
C221        O226   1.373       .  S
C222        C223   1.409       .  A
C223        C224   1.407       .  A
C223        H227   1.083       .  S
C224        O228   1.371       .  S
O226        H230   0.992       .  S
O228        H229   0.992       .  S
C231        C232   1.397       .  A
C231        C236   1.406       .  A
C232        C233   1.402       .  A
C232        H237   1.084       .  S
C233        C234   1.425       .  A
C233        O238   1.375       .  S
C234        C235   1.410       .  A
C235        C236   1.400       .  A
C235        H239   1.072       .  S
C236        O240   1.373       .  S
O238        H242   0.993       .  S
O240        H241   0.992       .  S
C243        C248   1.410       .  A
C243        C824   1.396   1_455  A
C243        C601   1.490       .  S
C244        C245   1.396       .  A
C244        C823   1.396       .  A
C244        H249   1.084       .  S
C245        C826   1.419       .  A
C245        O250   1.373       .  S
C246        C247   1.406       .  A
C246        C825   1.419   1_455  A
C247        C248   1.408       .  A
C247        H251   1.083       .  S
C248        O252   1.370       .  S
O250        H254   0.992       .  S
O252        H253   0.992       .  S
C255        C260   1.408       .  A
C255        C836   1.410       .  A
C256        C257   1.398       .  A
C256        C835   1.410   1_455  A
C256        H261   1.082       .  S
C257        C838   1.403   1_455  A
C257        O262   1.372       .  S
C258        C259   1.410       .  A
C258        C837   1.403       .  A
C259        C260   1.413       .  A
C259        H263   1.083       .  S
C260        O264   1.371       .  S
O262        H266   0.992       .  S
O264        H265   0.992       .  S
C267        C268   1.410       .  A
C267        C852   1.404       .  A
C267        C602   1.498       .  S
C268        C269   1.411       .  A
C268        H273   1.083       .  S
C269        C270   1.408       .  A
C269        O274   1.371       .  S
C270        C851   1.411       .  A
C271        C272   1.402       .  A
C271        C850   1.411   1_455  A
C271        H275   1.083       .  S
C272        C847   1.404   1_455  A
C272        O276   1.371       .  S
O274        H278   0.992       .  S
O276        H277   0.992       .  S
C279        C284   1.412       .  A
C279        C860   1.396   1_455  A
C280        C859   1.396       .  A
C280        C861   1.399       .  A
C280        H285   1.084       .  S
C281        C282   1.422   1_655  A
C281        C860   1.399       .  A
C281        O866   1.373       .  S
C282        C283   1.407       .  A
C283        C284   1.414       .  A
C283        H287   1.083       .  S
C284        O288   1.371       .  S
O286        C861   1.373       .  S
O286        H290   0.992       .  S
O288        H289   0.992       .  S
N291        H323   1.035       .  S
N291        C876   1.354       .  A
N291        C295   1.355       .  A
N292        C300   1.354       .  A
N293        H324   1.036       .  S
N293        C298   1.357   1_655  A
N293        C877   1.355   1_655  A
N294        C302   1.354   1_554  A
C295        C303   1.391       .  A
C295        C311   1.422       .  A
C296        N871   1.354       .  A
C296        C312   1.417   1_455  A
C296        C304   1.385       .  A
C297        N873   1.355       .  A
C297        C305   1.386       .  A
C297        C314   1.419       .  A
C298        C313   1.423       .  A
C298        C306   1.389       .  A
C299        C311   1.420       .  A
C299        C307   1.387       .  A
C300        C314   1.419       .  A
C300        C308   1.386       .  A
C301        C309   1.386       .  A
C301        C312   1.421       .  A
C302        C310   1.386   1_455  A
C302        C313   1.421       .  A
C303        C884   1.373       .  A
C303        H315   1.082       .  S
C304        C883   1.373       .  A
C304        H316   1.082       .  S
C305        C886   1.373       .  A
C305        H317   1.082       .  S
C306        C885   1.373       .  A
C306        H318   1.082       .  S
C307        H319   1.082       .  S
C308        H320   1.082       .  S
C309        H321   1.082       .  S
C310        H322   1.082       .  S
C311       C1113   1.490       .  S
C312       C1137   1.498       .  S
C313        C569   1.497       .  S
C314        C548   1.497       .  S
O325        C333   1.260       .  A
O325       Cr923   1.972   1_455  S
O326        C327   1.261       .  A
O326       Cr343   1.994       .  S
C327        C509   1.479       .  S
C327        O328   1.260       .  A
O328       Cr344   1.983       .  S
O329        C330   1.273       .  A
O329       Cr344   2.027       .  S
C330        C545   1.491       .  S
C330        O911   1.264       .  A
O331        C910   1.264   1_455  A
O331       Cr345   1.991       .  S
O332        C333   1.266       .  A
O332       Cr345   1.994       .  S
C333        C497   1.455       .  S
O334        C342   1.261       .  A
O334       Cr923   1.987   1_455  S
O335        C336   1.259       .  A
O335       Cr343   1.978       .  S
C336        C485   1.463       .  S
C336        O337   1.269       .  A
O337       Cr344   2.013       .  S
O338        C919   1.258       .  A
O338       Cr344   1.980       .  S
C339        C536   1.490       .  S
C339        O918   1.258   1_455  A
C339        O340   1.266       .  A
O340       Cr345   2.019       .  S
O341        C342   1.258       .  A
O341       Cr345   1.980       .  S
C342        C521   1.475       .  S
Cr343       O905   1.972       .  S
Cr343       O914   1.987       .  S
Cr343       O346   1.768       .  S
Cr344       O346   1.768       .  S
Cr345       O926   1.768   1_455  S
O346       Cr925   1.768       .  S
N347        H379   1.034       .  S
N347        C352   1.356   1_565  A
N347        C351   1.352       .  A
N348        C355   1.349       .  A
N348        C356   1.350       .  A
N349        H380   1.042   1_545  S
N349        C354   1.346       .  A
N349        C353   1.350   1_545  A
N350        C357   1.346       .  A
N350        C358   1.351       .  A
C351        C359   1.386       .  A
C351        C367   1.420       .  A
C352        C368   1.424       .  A
C352        C360   1.390       .  A
C353        C361   1.390       .  A
C353        C370   1.411       .  A
C354        C369   1.405       .  A
C354        C362   1.384       .  A
C355        C367   1.417       .  A
C355        C363   1.388       .  A
C356        C370   1.412       .  A
C356        C364   1.385       .  A
C357        C365   1.385       .  A
C357        C368   1.418       .  A
C358        C366   1.388       .  A
C358        C369   1.416       .  A
C359        C360   1.372   1_565  A
C359        H371   1.082       .  S
C360        H372   1.080       .  S
C361        C362   1.377   1_565  A
C361        H373   1.082       .  S
C362        H374   1.083       .  S
C363        C364   1.381       .  A
C363        H375   1.082       .  S
C364        H376   1.082       .  S
C365        C366   1.376       .  A
C365        H377   1.082       .  S
C366        H378   1.079       .  S
C367        C473   1.491       .  S
C368        C512   1.490       .  S
C369        C524   1.519       .  S
C370        C464   1.489       .  S
O381        C389   1.257       .  A
O381       Cr979   1.963   1_455  S
O382        C383   1.260       .  A
O382       Cr399   1.994       .  S
C383        C476   1.486       .  S
C383        O384   1.259       .  A
O384       Cr400   1.984       .  S
O385        C386   1.276       .  A
O385       Cr400   2.024       .  S
C386        C560   1.493       .  S
C386        O967   1.267       .  A
O387        C966   1.267   1_455  A
O387       Cr401   1.997       .  S
O388        C389   1.269       .  A
O388       Cr401   2.009       .  S
C389        C437   1.462       .  S
O390        C398   1.261       .  A
O390       Cr979   1.983   1_455  S
O391        C392   1.259       .  A
O391       Cr399   1.983       .  S
C392        C449   1.471       .  S
C392        O393   1.272       .  A
O393       Cr400   2.020       .  S
O394        C975   1.253       .  A
O394       Cr400   1.976       .  S
C395        C572   1.500       .  S
C395        O974   1.253   1_455  A
C395        O396   1.269       .  A
O396       Cr401   2.043       .  S
O397        C398   1.257       .  A
O397       Cr401   1.980       .  S
C398        C461   1.466       .  S
Cr399       O961   1.963       .  S
Cr399       O970   1.983       .  S
Cr399       O402   1.773       .  S
Cr400       O402   1.769       .  S
Cr401       O982   1.771   1_455  S
O402       Cr981   1.771       .  S
N403        H435   1.037       .  S
N403        C408   1.357       .  A
N403        C407   1.352   1_545  A
N404        C412   1.352       .  A
N405        H436   1.037   1_545  S
N405        C410   1.352       .  A
N405        C409   1.356   1_545  A
N406        C414   1.347       .  A
C407        C415   1.387       .  A
C407        C423   1.419       .  A
C408        C424   1.421       .  A
C408        C416   1.388       .  A
C409        C417   1.389       .  A
C409        C426   1.423       .  A
C410        C425   1.417       .  A
C410        C418   1.386       .  A
C411        C423   1.414       .  A
C411        C419   1.387       .  A
C412        C426   1.413       .  A
C412        C420   1.386       .  A
C413        C421   1.386       .  A
C413        C424   1.407       .  A
C414        C422   1.388       .  A
C414        C425   1.408       .  A
C415        C416   1.381   1_565  A
C415        H427   1.082       .  S
C416        H428   1.082       .  S
C417        C418   1.381   1_565  A
C417        H429   1.082       .  S
C418        H430   1.083       .  S
C419        H431   1.081       .  S
C420        H432   1.080       .  S
C421        H433   1.081       .  S
C422        H434   1.082       .  S
C423       C1020   1.489       .  S
C424        C488   1.486       .  S
C425       C1080   1.478       .  S
C426        C452   1.494       .  S
C437        C438   1.404       .  A
C437       C1022   1.405       .  A
C438        C439   1.400       .  A
C438        H443   1.084       .  S
C439        C440   1.407       .  A
C439        O444   1.372       .  S
C440       C1021   1.406   1_455  A
C440       C1003   1.489       .  S
C441       C1020   1.406       .  A
C441        C442   1.399       .  A
C441        H445   1.084       .  S
C442       C1017   1.405       .  A
C442        O446   1.372       .  S
O444        H448   0.992       .  S
O446        H447   0.992       .  S
C449        C450   1.404       .  A
C449       C1034   1.409       .  A
C450        C451   1.404       .  A
C450        H455   1.084       .  S
C451        C452   1.409       .  A
C451        O456   1.372       .  S
C452       C1033   1.404       .  A
C453       C1032   1.404   1_455  A
C453        C454   1.401       .  A
C453        H457   1.084       .  S
C454       C1029   1.409   1_455  A
C454        O458   1.372       .  S
O456        H460   0.992       .  S
O458        H459   0.992       .  S
C461        C462   1.404       .  A
C461        C466   1.405       .  A
C462        C463   1.407       .  A
C462        H467   1.083       .  S
C463        C464   1.410       .  A
C463        O468   1.372       .  S
C464        C465   1.404       .  A
C465        C466   1.392       .  A
C465        H469   1.084       .  S
C466        O470   1.372       .  S
O468        H472   0.992       .  S
O470        H471   0.991       .  S
C473        C474   1.409       .  A
C473        C478   1.404       .  A
C474        C475   1.404       .  A
C474        H479   1.084       .  S
C475        C476   1.410       .  A
C475        O480   1.371       .  S
C476        C477   1.409       .  A
C477        C478   1.394       .  A
C477        H481   1.083       .  S
C478        O482   1.372       .  S
O480        H484   0.992       .  S
O482        H483   0.992       .  S
C485       C1066   1.404       .  A
C485        C490   1.406       .  A
C486       C1065   1.404   1_455  A
C486        C487   1.400       .  A
C486        H491   1.084       .  S
C487       C1068   1.406   1_455  A
C487        O492   1.373       .  S
C488       C1067   1.406       .  A
C488        C489   1.404       .  A
C489        C490   1.402       .  A
C489        H493   1.083       .  S
C490        O494   1.372       .  S
O492        H496   0.992       .  S
O494        H495   0.992       .  S
C497        C498   1.403       .  A
C497       C1082   1.405       .  A
C498        C499   1.395       .  A
C498        H503   1.084       .  S
C499        C500   1.404       .  A
C499        O504   1.372       .  S
C500       C1081   1.404   1_455  A
C500       C1005   1.478       .  S
C501       C1080   1.404       .  A
C501        C502   1.396       .  A
C501        H505   1.084       .  S
C502       C1077   1.405       .  A
C502        O506   1.372       .  S
O504        H508   0.992       .  S
O506        H507   0.992       .  S
C509        C510   1.406       .  A
C509        C514   1.409       .  A
C510        C511   1.390       .  A
C510        H515   1.084       .  S
C511        C512   1.404       .  A
C511        O516   1.373       .  S
C512        C513   1.409       .  A
C513        C514   1.407       .  A
C513        H517   1.083       .  S
C514        O518   1.371       .  S
O516        H520   0.992       .  S
O518        H519   0.992       .  S
C521        C522   1.397       .  A
C521        C526   1.406       .  A
C522        C523   1.402       .  A
C522        H527   1.084       .  S
C523        C524   1.425       .  A
C523        O528   1.375       .  S
C524        C525   1.410       .  A
C525        C526   1.400       .  A
C525        H529   1.072       .  S
C526        O530   1.373       .  S
O528        H532   0.993       .  S
O530        H531   0.992       .  S
C533       C1114   1.396   1_455  A
C533        C538   1.410       .  A
C533        C891   1.490       .  S
C534       C1113   1.396       .  A
C534        C535   1.396       .  A
C534        H539   1.084       .  S
C535       C1116   1.419       .  A
C535        O540   1.373       .  S
C536       C1115   1.419   1_455  A
C536        C537   1.406       .  A
C537        C538   1.408       .  A
C537        H541   1.083       .  S
C538        O542   1.370       .  S
O540        H544   0.992       .  S
O542        H543   0.992       .  S
C545       C1126   1.410       .  A
C545        C550   1.408       .  A
C546       C1125   1.410   1_455  A
C546        C547   1.398       .  A
C546        H551   1.082       .  S
C547       C1128   1.403   1_455  A
C547        O552   1.372       .  S
C548       C1127   1.403       .  A
C548        C549   1.410       .  A
C549        C550   1.413       .  A
C549        H553   1.083       .  S
C550        O554   1.371       .  S
O552        H556   0.992       .  S
O554        H555   0.992       .  S
C557        C558   1.410       .  A
C557       C1142   1.404       .  A
C557        C892   1.498       .  S
C558        C559   1.411       .  A
C558        H563   1.083       .  S
C559        C560   1.408       .  A
C559        O564   1.371       .  S
C560       C1141   1.411       .  A
C561       C1140   1.411   1_455  A
C561        C562   1.402       .  A
C561        H565   1.083       .  S
C562       C1137   1.404   1_455  A
C562        O566   1.371       .  S
O564        H568   0.992       .  S
O566        H567   0.992       .  S
C569       C1150   1.396   1_455  A
C569        C574   1.412       .  A
C570       C1149   1.396       .  A
C570       C1151   1.399       .  A
C570        H575   1.084       .  S
C571       C1150   1.399       .  A
C571        C572   1.422   1_655  A
C571       O1156   1.373       .  S
C572        C573   1.407       .  A
C573        C574   1.414       .  A
C573        H577   1.083       .  S
C574        O578   1.371       .  S
O576       C1151   1.373       .  S
O576        H580   0.992       .  S
O578        H579   0.992       .  S
N581        H613   1.035   1_455  S
N581        C585   1.355       .  A
N582        C879   1.353       .  A
N582        C590   1.354   1_455  A
N583        H614   1.036       .  S
N583        C588   1.357       .  A
N584        C881   1.355       .  A
N584        C592   1.354       .  A
C585        C593   1.391       .  A
C585        C601   1.422       .  A
C586        C602   1.417       .  A
C586        C594   1.385       .  A
C587        C595   1.386       .  A
C587        C604   1.419   1_455  A
C588        C603   1.423       .  A
C588        C596   1.389       .  A
C589        N872   1.353   1_554  A
C589        C601   1.420       .  A
C589        C597   1.387   1_455  A
C590        C604   1.419       .  A
C590        C598   1.386       .  A
C591        N874   1.355       .  A
C591        C599   1.386       .  A
C591        C602   1.421       .  A
C592        C600   1.386       .  A
C592        C603   1.421       .  A
C593        H605   1.082       .  S
C594        H606   1.082       .  S
C595        H607   1.082       .  S
C596        H608   1.082       .  S
C597        C888   1.380   1_554  A
C597        H609   1.082       .  S
C598        C887   1.380       .  A
C598        H610   1.082       .  S
C599        C890   1.381   1_554  A
C599        H611   1.082       .  S
C600        C889   1.381       .  A
C600        H612   1.082       .  S
C603        C859   1.497       .  S
C604        C838   1.497       .  S
O615        C623   1.260       .  A
O616        C617   1.261       .  A
O616       Cr633   1.994       .  S
C617        C799   1.479       .  S
C617        O618   1.260       .  A
O618       Cr634   1.983       .  S
O619        C620   1.273       .  A
O619       Cr634   2.027       .  S
C620        C835   1.491       .  S
O621       Cr635   1.991       .  S
O622        C623   1.266       .  A
O622       Cr635   1.994       .  S
C623        C787   1.455       .  S
O624        C632   1.261       .  A
O625        C626   1.259       .  A
O625       Cr633   1.978       .  S
C626        C775   1.463       .  S
C626        O627   1.269       .  A
O627       Cr634   2.013       .  S
O628       Cr634   1.980       .  S
C629        C826   1.490       .  S
C629        O630   1.266       .  A
O630       Cr635   2.019       .  S
O631        C632   1.258       .  A
O631       Cr635   1.980       .  S
C632        C811   1.475       .  S
Cr633       O636   1.768       .  S
Cr634       O636   1.768       .  S
N637        H669   1.034       .  S
N637        C642   1.356   1_565  A
N637        C641   1.352       .  A
N638        C645   1.349       .  A
N638        C646   1.350       .  A
N639        H670   1.042   1_545  S
N639        C644   1.346       .  A
N639        C643   1.350   1_545  A
N640        C647   1.346       .  A
N640        C648   1.351       .  A
C641        C649   1.386       .  A
C641        C657   1.420       .  A
C642        C658   1.424       .  A
C642        C650   1.390       .  A
C643        C651   1.390       .  A
C643        C660   1.411       .  A
C644        C659   1.405       .  A
C644        C652   1.384       .  A
C645        C657   1.417       .  A
C645        C653   1.388       .  A
C646        C660   1.412       .  A
C646        C654   1.385       .  A
C647        C655   1.385       .  A
C647        C658   1.418       .  A
C648        C656   1.388       .  A
C648        C659   1.416       .  A
C649        C650   1.372   1_565  A
C649        H661   1.082       .  S
C650        H662   1.080       .  S
C651        C652   1.377   1_565  A
C651        H663   1.082       .  S
C652        H664   1.083       .  S
C653        C654   1.381       .  A
C653        H665   1.082       .  S
C654        H666   1.082       .  S
C655        C656   1.376       .  A
C655        H667   1.082       .  S
C656        H668   1.079       .  S
C657        C763   1.491       .  S
C658        C802   1.490       .  S
C659        C814   1.519       .  S
C660        C754   1.489       .  S
O671        C679   1.257       .  A
O672        C673   1.260       .  A
O672       Cr689   1.994       .  S
C673        C766   1.486       .  S
C673        O674   1.259       .  A
O674       Cr690   1.984       .  S
O675        C676   1.276       .  A
O675       Cr690   2.024       .  S
C676        C850   1.493       .  S
O677       Cr691   1.997       .  S
O678        C679   1.269       .  A
O678       Cr691   2.009       .  S
C679        C727   1.462       .  S
O680        C688   1.261       .  A
O681        C682   1.259       .  A
O681       Cr689   1.983       .  S
C682        C739   1.471       .  S
C682        O683   1.272       .  A
O683       Cr690   2.020       .  S
O684       Cr690   1.976       .  S
C685        C862   1.500       .  S
C685        O686   1.269       .  A
O686       Cr691   2.043       .  S
O687        C688   1.257       .  A
O687       Cr691   1.980       .  S
C688        C751   1.466       .  S
Cr689       O692   1.773       .  S
Cr690       O692   1.769       .  S
N693        H725   1.037       .  S
N693        C698   1.357   1_455  A
N693        C697   1.352   1_545  A
N694        C991   1.351       .  A
N694        C702   1.352       .  A
N695        H726   1.037   1_545  S
N695        C700   1.352       .  A
N695        C699   1.356   1_445  A
N696        C993   1.348       .  A
N696        C704   1.347       .  A
C697        C705   1.387   1_455  A
C697        C713   1.419       .  A
C698        C714   1.421   1_655  A
C698        C706   1.388       .  A
C699        C707   1.389       .  A
C699        C716   1.423       .  A
C700        C715   1.417       .  A
C700        C708   1.386   1_455  A
C701        N984   1.351   1_554  A
C701        C713   1.414       .  A
C701        C709   1.387       .  A
C702        C716   1.413   1_455  A
C702        C710   1.386       .  A
C703        N986   1.348   1_554  A
C703        C711   1.386       .  A
C703        C714   1.407       .  A
C704        C712   1.388       .  A
C704        C715   1.408       .  A
C705        C706   1.381   1_565  A
C705        H717   1.082       .  S
C706        H718   1.082       .  S
C707        C708   1.381   1_565  A
C707        H719   1.082       .  S
C708        H720   1.083       .  S
C709       C1000   1.368   1_554  A
C709        H721   1.081       .  S
C710        C999   1.368       .  A
C710        H722   1.080       .  S
C711       C1002   1.366   1_554  A
C711        H723   1.081       .  S
C712       C1001   1.366       .  A
C712        H724   1.082       .  S
C714        C778   1.486   1_455  S
C716        C742   1.494       .  S
C727        C728   1.404       .  A
C728        C729   1.400       .  A
C728        H733   1.084       .  S
C729        C730   1.407       .  A
C729        O734   1.372       .  S
C731        C732   1.399   1_655  A
C731        H735   1.084       .  S
C732        O736   1.372   1_455  S
O734        H738   0.992       .  S
O736        H737   0.992       .  S
C739        C740   1.404       .  A
C740        C741   1.404       .  A
C740        H745   1.084       .  S
C741        C742   1.409       .  A
C741        O746   1.372       .  S
C743        C744   1.401       .  A
C743        H747   1.084       .  S
C744        O748   1.372       .  S
O746        H750   0.992       .  S
O748        H749   0.992       .  S
C751        C752   1.404       .  A
C751        C756   1.405       .  A
C752        C753   1.407       .  A
C752        H757   1.083       .  S
C753        C754   1.410       .  A
C753        O758   1.372       .  S
C754        C755   1.404       .  A
C755        C756   1.392       .  A
C755        H759   1.084       .  S
C756        O760   1.372       .  S
O758        H762   0.992       .  S
O760        H761   0.991       .  S
C763        C764   1.409       .  A
C763        C768   1.404       .  A
C764        C765   1.404       .  A
C764        H769   1.084       .  S
C765        C766   1.410       .  A
C765        O770   1.371       .  S
C766        C767   1.409       .  A
C767        C768   1.394       .  A
C767        H771   1.083       .  S
C768        O772   1.372       .  S
O770        H774   0.992       .  S
O772        H773   0.992       .  S
C775        C780   1.406       .  A
C776        C777   1.400       .  A
C776        H781   1.084       .  S
C777        O782   1.373       .  S
C778        C779   1.404       .  A
C779        C780   1.402       .  A
C779        H783   1.083       .  S
C780        O784   1.372       .  S
O782        H786   0.992       .  S
O784        H785   0.992       .  S
C787        C788   1.403       .  A
C788        C789   1.395       .  A
C788        H793   1.084       .  S
C789        C790   1.404       .  A
C789        O794   1.372       .  S
C791        C792   1.396   1_655  A
C791        H795   1.084       .  S
C792        O796   1.372   1_455  S
O794        H798   0.992       .  S
O796        H797   0.992       .  S
C799        C800   1.406       .  A
C799        C804   1.409       .  A
C800        C801   1.390       .  A
C800        H805   1.084       .  S
C801        C802   1.404       .  A
C801        O806   1.373       .  S
C802        C803   1.409       .  A
C803        C804   1.407       .  A
C803        H807   1.083       .  S
C804        O808   1.371       .  S
O806        H810   0.992       .  S
O808        H809   0.992       .  S
C811        C812   1.397       .  A
C811        C816   1.406       .  A
C812        C813   1.402       .  A
C812        H817   1.084       .  S
C813        C814   1.425       .  A
C813        O818   1.375       .  S
C814        C815   1.410       .  A
C815        C816   1.400       .  A
C815        H819   1.072       .  S
C816        O820   1.373       .  S
O818        H822   0.993       .  S
O820        H821   0.992       .  S
C823        C828   1.410       .  A
C824        C825   1.396       .  A
C824        H829   1.084       .  S
C825        O830   1.373       .  S
C826        C827   1.406       .  A
C827        C828   1.408       .  A
C827        H831   1.083       .  S
C828        O832   1.370       .  S
O830        H834   0.992       .  S
O832        H833   0.992       .  S
C835        C840   1.408       .  A
C836        C837   1.398       .  A
C836        H841   1.082       .  S
C837        O842   1.372       .  S
C838        C839   1.410       .  A
C839        C840   1.413       .  A
C839        H843   1.083       .  S
C840        O844   1.371       .  S
O842        H846   0.992       .  S
O844        H845   0.992       .  S
C847        C848   1.410       .  A
C848        C849   1.411       .  A
C848        H853   1.083       .  S
C849        C850   1.408       .  A
C849        O854   1.371       .  S
C851        C852   1.402       .  A
C851        H855   1.083       .  S
C852        O856   1.371       .  S
O854        H858   0.992       .  S
O856        H857   0.992       .  S
C859        C864   1.412       .  A
C860        H865   1.084       .  S
C861        C862   1.422       .  A
C862        C863   1.407       .  A
C863        C864   1.414       .  A
C863        H867   1.083       .  S
C864        O868   1.371       .  S
O866        H870   0.992       .  S
O868        H869   0.992       .  S
N871        H903   1.035   1_455  S
N871        C875   1.355       .  A
N872        C880   1.354   1_455  A
N873        H904   1.036       .  S
N873        C878   1.357       .  A
N874        C882   1.354   1_554  A
C875        C883   1.391       .  A
C875        C891   1.422       .  A
C876        C892   1.417       .  A
C876        C884   1.385       .  A
C877        C885   1.386       .  A
C877        C894   1.419   1_455  A
C878        C893   1.423       .  A
C878        C886   1.389       .  A
C879        C891   1.420       .  A
C879        C887   1.387   1_455  A
C880        C894   1.419       .  A
C880        C888   1.386       .  A
C881        C889   1.386       .  A
C881        C892   1.421       .  A
C882        C890   1.386       .  A
C882        C893   1.421       .  A
C883        H895   1.082       .  S
C884        H896   1.082       .  S
C885        H897   1.082       .  S
C886        H898   1.082       .  S
C887        H899   1.082       .  S
C888        H900   1.082       .  S
C889        H901   1.082       .  S
C890        H902   1.082       .  S
C893       C1149   1.497       .  S
C894       C1128   1.497       .  S
O905        C913   1.260       .  A
O906        C907   1.261       .  A
O906       Cr923   1.994       .  S
C907       C1089   1.479       .  S
C907        O908   1.260       .  A
O908       Cr924   1.983       .  S
O909        C910   1.273       .  A
O909       Cr924   2.027       .  S
C910       C1125   1.491       .  S
O911       Cr925   1.991       .  S
O912        C913   1.266       .  A
O912       Cr925   1.994       .  S
C913       C1077   1.455       .  S
O914        C922   1.261       .  A
O915        C916   1.259       .  A
O915       Cr923   1.978       .  S
C916       C1065   1.463       .  S
C916        O917   1.269       .  A
O917       Cr924   2.013       .  S
O918       Cr924   1.980       .  S
C919       C1116   1.490       .  S
C919        O920   1.266       .  A
O920       Cr925   2.019       .  S
O921        C922   1.258       .  A
O921       Cr925   1.980       .  S
C922       C1101   1.475       .  S
Cr923       O926   1.768       .  S
Cr924       O926   1.768       .  S
N927        H959   1.034       .  S
N927        C932   1.356   1_565  A
N927        C931   1.352       .  A
N928        C935   1.349       .  A
N928        C936   1.350       .  A
N929        H960   1.042   1_545  S
N929        C934   1.346       .  A
N929        C933   1.350   1_545  A
N930        C937   1.346       .  A
N930        C938   1.351       .  A
C931        C939   1.386       .  A
C931        C947   1.420       .  A
C932        C948   1.424       .  A
C932        C940   1.390       .  A
C933        C941   1.390       .  A
C933        C950   1.411       .  A
C934        C949   1.405       .  A
C934        C942   1.384       .  A
C935        C947   1.417       .  A
C935        C943   1.388       .  A
C936        C950   1.412       .  A
C936        C944   1.385       .  A
C937        C945   1.385       .  A
C937        C948   1.418       .  A
C938        C946   1.388       .  A
C938        C949   1.416       .  A
C939        C940   1.372   1_565  A
C939        H951   1.082       .  S
C940        H952   1.080       .  S
C941        C942   1.377   1_565  A
C941        H953   1.082       .  S
C942        H954   1.083       .  S
C943        C944   1.381       .  A
C943        H955   1.082       .  S
C944        H956   1.082       .  S
C945        C946   1.376       .  A
C945        H957   1.082       .  S
C946        H958   1.079       .  S
C947       C1053   1.491       .  S
C948       C1092   1.490       .  S
C949       C1104   1.519       .  S
C950       C1044   1.489       .  S
O961        C969   1.257       .  A
O962        C963   1.260       .  A
O962       Cr979   1.994       .  S
C963       C1056   1.486       .  S
C963        O964   1.259       .  A
O964       Cr980   1.984       .  S
O965        C966   1.276       .  A
O965       Cr980   2.024       .  S
C966       C1140   1.493       .  S
O967       Cr981   1.997       .  S
O968        C969   1.269       .  A
O968       Cr981   2.009       .  S
C969       C1017   1.462       .  S
O970        C978   1.261       .  A
O971        C972   1.259       .  A
O971       Cr979   1.983       .  S
C972       C1029   1.471       .  S
C972        O973   1.272       .  A
O973       Cr980   2.020       .  S
O974       Cr980   1.976       .  S
C975       C1152   1.500       .  S
C975        O976   1.269       .  A
O976       Cr981   2.043       .  S
O977        C978   1.257       .  A
O977       Cr981   1.980       .  S
C978       C1041   1.466       .  S
Cr979       O982   1.773       .  S
Cr980       O982   1.769       .  S
N983       H1015   1.037       .  S
N983        C988   1.357   1_455  A
N983        C987   1.352   1_545  A
N984        C992   1.352       .  A
N985       H1016   1.037   1_545  S
N985        C990   1.352       .  A
N985        C989   1.356   1_445  A
N986        C994   1.347       .  A
C987        C995   1.387   1_455  A
C987       C1003   1.419       .  A
C988       C1004   1.421   1_655  A
C988        C996   1.388       .  A
C989        C997   1.389       .  A
C989       C1006   1.423       .  A
C990       C1005   1.417       .  A
C990        C998   1.386   1_455  A
C991       C1003   1.414       .  A
C991        C999   1.387       .  A
C992       C1006   1.413   1_455  A
C992       C1000   1.386       .  A
C993       C1001   1.386       .  A
C993       C1004   1.407       .  A
C994       C1002   1.388       .  A
C994       C1005   1.408       .  A
C995        C996   1.381   1_565  A
C995       H1007   1.082       .  S
C996       H1008   1.082       .  S
C997        C998   1.381   1_565  A
C997       H1009   1.082       .  S
C998       H1010   1.083       .  S
C999       H1011   1.081       .  S
C1000      H1012   1.080       .  S
C1001      H1013   1.081       .  S
C1002      H1014   1.082       .  S
C1004      C1068   1.486   1_455  S
C1006      C1032   1.494       .  S
C1017      C1018   1.404       .  A
C1018      C1019   1.400       .  A
C1018      H1023   1.084       .  S
C1019      C1020   1.407       .  A
C1019      O1024   1.372       .  S
C1021      C1022   1.399   1_655  A
C1021      H1025   1.084       .  S
C1022      O1026   1.372   1_455  S
O1024      H1028   0.992       .  S
O1026      H1027   0.992       .  S
C1029      C1030   1.404       .  A
C1030      C1031   1.404       .  A
C1030      H1035   1.084       .  S
C1031      C1032   1.409       .  A
C1031      O1036   1.372       .  S
C1033      C1034   1.401       .  A
C1033      H1037   1.084       .  S
C1034      O1038   1.372       .  S
O1036      H1040   0.992       .  S
O1038      H1039   0.992       .  S
C1041      C1042   1.404       .  A
C1041      C1046   1.405       .  A
C1042      C1043   1.407       .  A
C1042      H1047   1.083       .  S
C1043      C1044   1.410       .  A
C1043      O1048   1.372       .  S
C1044      C1045   1.404       .  A
C1045      C1046   1.392       .  A
C1045      H1049   1.084       .  S
C1046      O1050   1.372       .  S
O1048      H1052   0.992       .  S
O1050      H1051   0.991       .  S
C1053      C1054   1.409       .  A
C1053      C1058   1.404       .  A
C1054      C1055   1.404       .  A
C1054      H1059   1.084       .  S
C1055      C1056   1.410       .  A
C1055      O1060   1.371       .  S
C1056      C1057   1.409       .  A
C1057      C1058   1.394       .  A
C1057      H1061   1.083       .  S
C1058      O1062   1.372       .  S
O1060      H1064   0.992       .  S
O1062      H1063   0.992       .  S
C1065      C1070   1.406       .  A
C1066      C1067   1.400       .  A
C1066      H1071   1.084       .  S
C1067      O1072   1.373       .  S
C1068      C1069   1.404       .  A
C1069      C1070   1.402       .  A
C1069      H1073   1.083       .  S
C1070      O1074   1.372       .  S
O1072      H1076   0.992       .  S
O1074      H1075   0.992       .  S
C1077      C1078   1.403       .  A
C1078      C1079   1.395       .  A
C1078      H1083   1.084       .  S
C1079      C1080   1.404       .  A
C1079      O1084   1.372       .  S
C1081      C1082   1.396   1_655  A
C1081      H1085   1.084       .  S
C1082      O1086   1.372   1_455  S
O1084      H1088   0.992       .  S
O1086      H1087   0.992       .  S
C1089      C1090   1.406       .  A
C1089      C1094   1.409       .  A
C1090      C1091   1.390       .  A
C1090      H1095   1.084       .  S
C1091      C1092   1.404       .  A
C1091      O1096   1.373       .  S
C1092      C1093   1.409       .  A
C1093      C1094   1.407       .  A
C1093      H1097   1.083       .  S
C1094      O1098   1.371       .  S
O1096      H1100   0.992       .  S
O1098      H1099   0.992       .  S
C1101      C1102   1.397       .  A
C1101      C1106   1.406       .  A
C1102      C1103   1.402       .  A
C1102      H1107   1.084       .  S
C1103      C1104   1.425       .  A
C1103      O1108   1.375       .  S
C1104      C1105   1.410       .  A
C1105      C1106   1.400       .  A
C1105      H1109   1.072       .  S
C1106      O1110   1.373       .  S
O1108      H1112   0.993       .  S
O1110      H1111   0.992       .  S
C1113      C1118   1.410       .  A
C1114      C1115   1.396       .  A
C1114      H1119   1.084       .  S
C1115      O1120   1.373       .  S
C1116      C1117   1.406       .  A
C1117      C1118   1.408       .  A
C1117      H1121   1.083       .  S
C1118      O1122   1.370       .  S
O1120      H1124   0.992       .  S
O1122      H1123   0.992       .  S
C1125      C1130   1.408       .  A
C1126      C1127   1.398       .  A
C1126      H1131   1.082       .  S
C1127      O1132   1.372       .  S
C1128      C1129   1.410       .  A
C1129      C1130   1.413       .  A
C1129      H1133   1.083       .  S
C1130      O1134   1.371       .  S
O1132      H1136   0.992       .  S
O1134      H1135   0.992       .  S
C1137      C1138   1.410       .  A
C1138      C1139   1.411       .  A
C1138      H1143   1.083       .  S
C1139      C1140   1.408       .  A
C1139      O1144   1.371       .  S
C1141      C1142   1.402       .  A
C1141      H1145   1.083       .  S
C1142      O1146   1.371       .  S
O1144      H1148   0.992       .  S
O1146      H1147   0.992       .  S
C1149      C1154   1.412       .  A
C1150      H1155   1.084       .  S
C1151      C1152   1.422       .  A
C1152      C1153   1.407       .  A
C1153      C1154   1.414       .  A
C1153      H1157   1.083       .  S
C1154      O1158   1.371       .  S
O1156      H1160   0.992       .  S
O1158      H1159   0.992       .  S
