geometry optimzed in LAMMPS
_audit_creation_date              2020-12-01 
_audit_creation_method            'lammps2cif' 
_symmetry_space_group_name_H-M    'P1' 
_symmetry_Int_Tables_number       1 
_symmetry_cell_setting            triclinic 
loop_ 
_symmetry_equiv_pos_as_xyz 
  x,y,z 
_cell_length_a                    27.47673108 
_cell_length_b                    38.122402705147756 
_cell_length_c                    44.36790249178851 
_cell_angle_alpha                 89.84284524330855 
_cell_angle_beta                  90.05346246741225 
_cell_angle_gamma                 90.10633639962882 
loop_ 
_atom_site_label 
_atom_site_type_symbol 
_atom_site_fract_x 
_atom_site_fract_y 
_atom_site_fract_z 
_atom_site_charge 
N1          N  0.00444074  0.55280546  0.99286315    -0.36000
N2          N  0.00265056  0.50241189  0.04308793    -0.56500
N3          N  0.01569911  0.44365409  0.50072008    -0.36000
N4          N  0.00435630  0.49314729  0.45105535    -0.56500
C5          C  0.98498997  0.57278773  0.01509345     0.27600
C6          C  0.99967805  0.56845116  0.46632209     0.27600
C7          C  0.00294842  0.42784865  0.02796689     0.27600
C8          C  0.99730068  0.42209092  0.47912916     0.27600
C9          C  0.00583921  0.53330529  0.05792975     0.36200
C10         C  0.01928433  0.47736868  0.06223520     0.36200
C11         C  0.01535515  0.51908225  0.43127167     0.36200
C12         C  0.00716448  0.46265025  0.43556038     0.36200
C13         C  0.96335093  0.60210284  0.00206730    -0.21200
C14         C  0.97599213  0.59978163  0.47178849    -0.21200
C15         C  0.98014115  0.39597439  0.02292351    -0.21200
C16         C  0.98120338  0.39135366  0.49268636    -0.21200
C17         C  0.02497439  0.52789588  0.08648391    -0.22300
C18         C  0.03400229  0.49261291  0.08909373    -0.22300
C19         C  0.02578118  0.50489244  0.40325905    -0.22300
C20         C  0.02001855  0.46925266  0.40588955    -0.22300
C21         C  0.98898337  0.56594717  0.04669488    -0.17700
C22         C  0.01093956  0.55541823  0.43730630    -0.17700
C23         C  0.99638990  0.42904905  0.44751135    -0.17600
C24         C  0.01671988  0.44082291  0.05659071    -0.17600
H25         H  0.94330221  0.62268890  0.01320083     0.15300
H26         H  0.96288902  0.61842226  0.45523335     0.15300
H27         H  0.96877184  0.37690441  0.03961565     0.15300
H28         H  0.96403904  0.36911305  0.48192761     0.15300
H29         H  0.03233127  0.54738550  0.10358654     0.13500
H30         H  0.04931344  0.47988900  0.10872578     0.13500
H31         H  0.03549561  0.51874260  0.38280948     0.13500
H32         H  0.02524817  0.45035675  0.38802991     0.13500
H33         H  0.02619611  0.53062575  0.99574060     0.26800
H34         H  0.03409873  0.46722436  0.49724635     0.26800
Fe35       Fe  0.99787138  0.15510427  0.23078549     1.65800
Fe36       Fe  0.05266605  0.22436073  0.26319049     1.73200
Fe37       Fe  0.94296559  0.23360640  0.22767931     1.54400
O38         O  0.93681464  0.20543929  0.18613812    -0.81000
O39         O  0.00869328  0.25032642  0.29231468    -0.79300
O40         O  0.99833048  0.16725924  0.18641977    -0.83500
O41         O  0.92201716  0.15065072  0.23082271    -0.78400
O42         O  0.98872230  0.26770674  0.20649276    -0.81600
O43         O  0.05118538  0.18188018  0.29409356    -0.82900
C44         C  0.88727929  0.16900276  0.24118572     0.97900
C45         C  0.96432289  0.18305608  0.17292287     1.05300
O46         O  0.99798179  0.20472131  0.24085791    -1.11900
O47         O  0.10525710  0.20113651  0.23744468    -0.74300
O48         O  0.07289423  0.14900318  0.22885379    -0.77800
O49         O  0.89282560  0.20100916  0.24790893    -0.78500
C50         C  0.10922880  0.16943568  0.22991453     0.96800
O51         O  0.99853706  0.14253100  0.27502711    -0.76500
O52         O  0.05755031  0.26787666  0.23379091    -0.81700
C53         C  0.96952614  0.26735670  0.29037667     0.99400
C54         C  0.03085682  0.27941250  0.21228451     1.05300
O55         O  0.94207754  0.26576193  0.26708350    -0.77300
C56         C  0.02535409  0.15387347  0.29613621     1.03600
N57         N  0.42301726  0.99966251  0.26017817    -0.36000
N58         N  0.49368279  0.05690361  0.25855974    -0.56500
N59         N  0.56556901  0.00309200  0.26794870    -0.36000
N60         N  0.49651258  0.94673072  0.27222063    -0.56500
C61         C  0.39517337  0.02893742  0.26071507     0.27600
C62         C  0.39571409  0.97293362  0.27141374     0.27600
C63         C  0.58988810  0.03283054  0.27480902     0.27600
C64         C  0.59180675  0.97615975  0.27917595     0.27600
C65         C  0.45606187  0.07302743  0.24481229     0.36200
C66         C  0.53420184  0.07518470  0.25136104     0.36200
C67         C  0.45762020  0.92589564  0.26688071     0.36200
C68         C  0.53702184  0.92758520  0.26670584     0.36200
C69         C  0.35020650  0.02106912  0.27304130    -0.21200
C70         C  0.35036308  0.98591215  0.27966078    -0.21200
C71         C  0.63082521  0.02484660  0.29178015    -0.21200
C72         C  0.63205349  0.98894681  0.29452738    -0.21200
C73         C  0.47255612  0.10231081  0.22920346    -0.22300
C74         C  0.52235217  0.10370623  0.23343616    -0.22300
C75         C  0.47343828  0.89269127  0.25893275    -0.22300
C76         C  0.52363239  0.89403652  0.25795253    -0.22300
C77         C  0.40734648  0.06154240  0.24732724    -0.17700
C78         C  0.40860139  0.93680670  0.27040566    -0.17700
C79         C  0.58494397  0.94089124  0.27074818    -0.17600
C80         C  0.58120762  0.06550442  0.26099700    -0.17600
H81         H  0.31982808  0.03869733  0.27627746     0.15300
H82         H  0.31943757  0.97192108  0.28863901     0.15300
H83         H  0.65852026  0.04288967  0.29962427     0.15300
H84         H  0.66077466  0.97381180  0.30501620     0.15300
H85         H  0.45125071  0.12043682  0.21584290     0.13500
H86         H  0.54695912  0.12303250  0.22403283     0.13500
H87         H  0.45150835  0.86994723  0.25371682     0.13500
H88         H  0.54668936  0.87259544  0.25125039     0.13500
H89         H  0.45582000  0.99724124  0.24868819     0.26800
H90         H  0.53842705  0.00080276  0.25166548     0.26800
Fe91       Fe  0.99979296  0.84337846  0.24927095     1.65800
Fe92       Fe  0.93819347  0.76694491  0.26233570     1.73200
Fe93       Fe  0.04860897  0.76625360  0.22552764     1.54400
O94         O  0.05018987  0.80243221  0.18939644    -0.81000
O95         O  0.97965849  0.72979675  0.28282988    -0.79300
O96         O  0.00760544  0.84951393  0.20410086    -0.83500
O97         O  0.07503664  0.84505801  0.25552027    -0.78400
O98         O  0.00133382  0.73745938  0.20041842    -0.80200
O99         O  0.94019002  0.79678116  0.30299768    -0.82900
C100        C  0.11011200  0.82347547  0.25481034     0.97900
C101        C  0.03077604  0.83238061  0.18441389     1.05300
O102        O  0.99553047  0.79200560  0.24567407    -1.11900
O103        O  0.88802974  0.80026390  0.24385140    -0.74300
O104        O  0.92487801  0.85212055  0.24450438    -0.77800
O105        O  0.10458132  0.79187478  0.24703231    -0.78500
C106        C  0.88683915  0.83329149  0.24205766     0.96800
O107        O  0.99337095  0.84023057  0.29439916    -0.76500
O108        O  0.92987897  0.73420204  0.22405439    -0.81700
C109        C  0.02118845  0.71633692  0.27925693     0.99400
C110        C  0.95816350  0.72635136  0.20223503     1.05300
O111        O  0.05154750  0.72707844  0.25942140    -0.77300
C112        C  0.96605838  0.82288940  0.31179242     1.03600
C113        C  0.99191999  0.01546253  0.46787275     0.02900
C114        C  0.97833416  0.97972441  0.47033179     0.02900
C115        C  0.97080102  0.96534819  0.49894969    -0.17600
C116        C  0.98330557  0.98429943  0.02515123     0.02900
C117        C  0.99402863  0.02058439  0.02259054     0.02900
C118        C  0.99445995  0.03595518  0.49413965    -0.17600
H119        H  0.00208368  0.06379411  0.49216720     0.04900
H120        H  0.96340873  0.93744600  0.50052974     0.04900
C121        C  0.03785663  0.89481008  0.12817657     0.30400
C122        C  0.04599410  0.92914379  0.11772002    -0.35900
C123        C  0.01738904  0.93999093  0.09322747     0.16400
C124        C  0.98350473  0.91836502  0.07983562     0.22200
C125        C  0.97564168  0.88393365  0.09010632    -0.34000
C126        C  0.00423604  0.87307629  0.11460167     0.16300
O127        O  0.05615871  0.88097724  0.15292787    -0.26100
C128        C  0.03491897  0.84963982  0.15503548     0.06100
C129        C  0.00232129  0.84325502  0.13166500    -0.30900
O130        O  0.96333163  0.93286849  0.05597240    -0.22800
C131        C  0.98425790  0.96437883  0.05389040    -0.02800
C132        C  0.01795233  0.97033690  0.07681927    -0.17200
H133        H  0.07216300  0.94641557  0.12832468     0.20800
H134        H  0.94893659  0.86685888  0.07977445     0.19200
H135        H  0.97652707  0.82187473  0.12973577     0.19100
H136        H  0.04292042  0.99214995  0.07916860     0.15000
C137        C  0.94920460  0.91551321  0.41641344     0.30400
C138        C  0.91938841  0.89148168  0.40077987    -0.35900
C139        C  0.94310626  0.86925515  0.38018743     0.16400
C140        C  0.99270647  0.87073615  0.37566558     0.22200
C141        C  0.02231576  0.89473329  0.39111253    -0.34000
C142        C  0.99864385  0.91710431  0.41127398     0.16300
O143        O  0.93508206  0.93830787  0.43700676    -0.26100
C144        C  0.97586184  0.95520436  0.44455777     0.06100
C145        C  0.01655607  0.94305597  0.42926037    -0.30900
O146        O  0.00694226  0.85078920  0.35328352    -0.22800
C147        C  0.96635453  0.83589667  0.34299257    -0.02800
C148        C  0.92520992  0.84622710  0.35909129    -0.17200
H149        H  0.88036063  0.89071685  0.40397214     0.20800
H150        H  0.06103055  0.89661069  0.38690018     0.19200
H151        H  0.05407312  0.95114569  0.43202005     0.19100
H152        H  0.88744244  0.84120457  0.35362240     0.15000
C153        C  0.23350996  0.84743315  0.25431663     0.30400
C154        C  0.27961830  0.85220295  0.24116411    -0.35900
C155        C  0.31214436  0.87402656  0.25684120     0.16400
C156        C  0.30051868  0.88935090  0.28399432     0.22200
C157        C  0.25431266  0.88474690  0.29707486    -0.34000
C158        C  0.22129303  0.86372830  0.28098178     0.16300
O159        O  0.19655818  0.83016353  0.24239394    -0.26100
C160        C  0.15987235  0.83589311  0.26134748     0.06100
C161        C  0.17302217  0.85681109  0.28570997    -0.30900
O162        O  0.33463702  0.91109170  0.29346436    -0.22800
C163        C  0.36848346  0.91030867  0.27197083    -0.02800
C164        C  0.35631682  0.88749816  0.24861915    -0.17200
H165        H  0.28866162  0.84101817  0.21949077     0.20800
H166        H  0.24401214  0.89811473  0.31758320     0.19200
H167        H  0.15011171  0.86615757  0.30381078     0.19100
H168        H  0.37516650  0.88373498  0.22746891     0.15000
C169        C  0.76355834  0.85589467  0.24683870     0.30400
C170        C  0.71511546  0.85064388  0.25608806    -0.35900
C171        C  0.68562788  0.88065085  0.25717466     0.16400
C172        C  0.70250837  0.91335713  0.24906297     0.22200
C173        C  0.75102142  0.91871911  0.24003344    -0.34000
C174        C  0.78078031  0.88883251  0.23949665     0.16300
O175        O  0.79818544  0.83201063  0.24673894    -0.26100
C176        C  0.83838558  0.84976514  0.23955207     0.06100
C177        C  0.82972226  0.88533225  0.23472251    -0.30900
O178        O  0.66926705  0.93783920  0.25241072    -0.22800
C179        C  0.63024930  0.92096977  0.26309408    -0.02800
C180        C  0.63880719  0.88515166  0.26692066    -0.17200
H181        H  0.70184607  0.82510998  0.26297461     0.20800
H182        H  0.76496829  0.94459163  0.23477616     0.19200
H183        H  0.85599019  0.90584835  0.23012737     0.19100
H184        H  0.61542173  0.86545294  0.27684352     0.15000
C185        C  0.99493592  0.09419457  0.07008293     0.30400
C186        C  0.01091858  0.12708850  0.08034790    -0.35900
C187        C  0.98228376  0.14303039  0.10263004     0.16400
C188        C  0.94057421  0.12776474  0.11391770     0.22200
C189        C  0.92440039  0.09491351  0.10344745    -0.34000
C190        C  0.95347846  0.07869823  0.08148236     0.16300
O191        O  0.01611977  0.07487066  0.04928901    -0.26100
C192        C  0.98850096  0.04615287  0.04756046     0.06100
C193        C  0.94896958  0.04708692  0.06722414    -0.30900
O194        O  0.92386358  0.14436526  0.13785558    -0.22800
C195        C  0.95497212  0.17078342  0.14210555    -0.02800
C196        C  0.99181584  0.17126336  0.12051192    -0.17200
H197        H  0.04436529  0.13885142  0.07229359     0.20800
H198        H  0.89267940  0.08209706  0.11286929     0.19200
H199        H  0.91969761  0.02821420  0.06937925     0.19100
H200        H  0.02502473  0.18659524  0.12093531     0.15000
C201        C  0.02868523  0.07228678  0.40985598     0.30400
C202        C  0.05037270  0.10268885  0.39787695    -0.35900
C203        C  0.03835376  0.11069742  0.36792238     0.16400
C204        C  0.00746203  0.08989270  0.35112532     0.22200
C205        C  0.98621748  0.05945236  0.36297434    -0.34000
C206        C  0.99794344  0.05164649  0.39286939     0.16300
O207        O  0.03179224  0.06136703  0.43792586    -0.26100
C208        C  0.00287007  0.03327295  0.43897288     0.06100
C209        C  0.98072155  0.02608544  0.41144977    -0.30900
O210        O  0.99956856  0.10265360  0.32412679    -0.22800
C211        C  0.02559080  0.13207065  0.32335318    -0.02800
C212        C  0.05074142  0.13857067  0.34999169    -0.17200
H213        H  0.07370055  0.11944614  0.41125659     0.20800
H214        H  0.96116466  0.04353630  0.35002386     0.19200
H215        H  0.95345359  0.00653969  0.40619681     0.19100
H216        H  0.07394029  0.16063840  0.35543262     0.15000
C217        C  0.69770415  0.09450024  0.24147217     0.30400
C218        C  0.74585071  0.08955302  0.23202142    -0.35900
C219        C  0.77830663  0.11686763  0.23845095     0.16400
C220        C  0.76437978  0.14716324  0.25301008     0.22200
C221        C  0.71600219  0.15210728  0.26249263    -0.34000
C222        C  0.68337178  0.12465809  0.25609492     0.16300
O223        O  0.66261094  0.07114760  0.23967400    -0.26100
C224        C  0.62487383  0.08639511  0.25305036     0.06100
C225        C  0.63550583  0.11988754  0.26367072    -0.30900
O226        O  0.80091537  0.16938521  0.25645805    -0.22800
C227        C  0.83869654  0.15292526  0.24412200    -0.02800
C228        C  0.82670233  0.12011018  0.23262953    -0.17200
H229        H  0.75739880  0.06571117  0.22095077     0.20800
H230        H  0.70476673  0.17549044  0.27435613     0.19200
H231        H  0.61256680  0.13695380  0.27693016     0.19100
H232        H  0.85006042  0.10166991  0.22109525     0.15000
C233        C  0.29560201  0.09371237  0.22104752     0.30400
C234        C  0.24698490  0.08967853  0.21204611    -0.35900
C235        C  0.21684267  0.11882210  0.21626289     0.16400
C236        C  0.23358520  0.15004480  0.22809043     0.22200
C237        C  0.28246858  0.15422342  0.23675335    -0.34000
C238        C  0.31252685  0.12483365  0.23294823     0.16300
O239        O  0.32795709  0.06841727  0.22274256    -0.26100
C240        C  0.36634758  0.08325433  0.23591709     0.06100
C241        C  0.35892677  0.11852291  0.24261981    -0.30900
O242        O  0.19814556  0.17262261  0.23286468    -0.22800
C243        C  0.15821618  0.15561536  0.22408521    -0.02800
C244        C  0.16768514  0.12203979  0.21346086    -0.17200
H245        H  0.23296416  0.06482451  0.20406964     0.20800
H246        H  0.29541878  0.17799905  0.24738099     0.19200
H247        H  0.38247318  0.13594776  0.25520282     0.19100
H248        H  0.14182209  0.10216136  0.20655954     0.15000
C249        C  0.02387938  0.39407345  0.12549537     0.30400
C250        C  0.01634253  0.38827168  0.15638025    -0.35900
C251        C  0.03398001  0.35648779  0.16800606     0.16400
C252        C  0.05669200  0.33169005  0.15038316     0.22200
C253        C  0.06459800  0.33761660  0.11944265    -0.34000
C254        C  0.04748257  0.36970810  0.10788658     0.16300
O255        O  0.00958419  0.42179221  0.11000738    -0.26100
C256        C  0.02448293  0.41549557  0.08198144     0.06100
C257        C  0.04827803  0.38330427  0.07938826    -0.30900
O258        O  0.06420023  0.30199106  0.16510301    -0.22800
C259        C  0.04729064  0.30814546  0.19275314    -0.02800
C260        C  0.02802476  0.34165433  0.19569872    -0.17200
H261        H  0.99695779  0.40689822  0.17025500     0.20800
H262        H  0.08145676  0.31811673  0.10519040     0.19200
H263        H  0.06401624  0.37172087  0.05940663     0.19100
H264        H  0.00714675  0.35193481  0.21436630     0.15000
C265        C  0.97479243  0.31166437  0.35942103     0.30400
C266        C  0.99653532  0.31871631  0.38745015    -0.35900
C267        C  0.98635519  0.35145888  0.40027335     0.16400
C268        C  0.95655803  0.37572689  0.38652102     0.22200
C269        C  0.93426418  0.36849479  0.35842758    -0.34000
C270        C  0.94463362  0.33554335  0.34542725     0.16300
O271        O  0.98387123  0.28418409  0.34246414    -0.26100
C272        C  0.95920838  0.28978260  0.31701349     0.06100
C273        C  0.93360138  0.32145188  0.31759752    -0.30900
O274        O  0.95493075  0.40564256  0.40163403    -0.22800
C275        C  0.98383772  0.40042308  0.42553033    -0.02800
C276        C  0.00441847  0.36704641  0.42564419    -0.17200
H277        H  0.02145974  0.30042326  0.39794375     0.20800
H278        H  0.91199219  0.38775376  0.34697194     0.19200
H279        H  0.91350483  0.33365019  0.29940187     0.19100
H280        H  0.03073328  0.35642358  0.44135861     0.15000
C281        C  0.95300329  0.68267988  0.13366987     0.30400
C282        C  0.96921247  0.67755786  0.10399807    -0.35900
C283        C  0.96788491  0.64303710  0.09324684     0.16400
C284        C  0.95112258  0.61535795  0.11034118     0.22200
C285        C  0.93484430  0.62045347  0.14019562    -0.34000
C286        C  0.93644315  0.65516055  0.15111548     0.16300
O287        O  0.95740612  0.71198014  0.14907421    -0.26100
C288        C  0.94292636  0.70381174  0.17686781     0.06100
C289        C  0.92928345  0.66862179  0.17949697    -0.30900
O290        O  0.95527721  0.58505710  0.09611484    -0.22800
C291        C  0.97514365  0.59331636  0.06949455    -0.02800
C292        C  0.98427263  0.62918272  0.06682295    -0.17200
H293        H  0.98406414  0.69885786  0.09068479     0.20800
H294        H  0.92356964  0.59869852  0.15428708     0.19200
H295        H  0.92111224  0.65420159  0.19992788     0.19100
H296        H  0.00226931  0.64300106  0.04863409     0.15000
C297        C  0.03949868  0.61958604  0.38239911     0.30400
C298        C  0.06653698  0.64676441  0.36872132    -0.35900
C299        C  0.05020100  0.65817651  0.34023796     0.16400
C300        C  0.00968183  0.64398028  0.32650924     0.22200
C301        C  0.98288699  0.61678639  0.34003586    -0.34000
C302        C  0.99939116  0.60528607  0.36827613     0.16300
O303        O  0.04822721  0.60479463  0.40887579    -0.26100
C304        C  0.01341857  0.58055867  0.41156722     0.06100
C305        C  0.98182001  0.57991652  0.38704098    -0.30900
O306        O  0.99755441  0.66084821  0.30169613    -0.22800
C307        C  0.03109940  0.68591524  0.29883779    -0.02800
C308        C  0.06501208  0.68549709  0.32221885    -0.17200
H309        H  0.09763864  0.65857307  0.37973690     0.20800
H310        H  0.95062663  0.60592723  0.32956750     0.19200
H311        H  0.95097430  0.56273368  0.38340603     0.19100
H312        H  0.09303096  0.70469558  0.32695711     0.15000
N313        N  0.00927223  0.55216621  0.49283593    -0.36000
N314        N  0.01012178  0.50220614  0.54277262    -0.56500
N315        N  0.01004085  0.44457183  0.00137091    -0.36000
N316        N  0.00192829  0.49457624  0.95123220    -0.56500
C317        C  0.99113329  0.57250448  0.51528990     0.27600
C318        C  0.99603092  0.56926956  0.96621389     0.27600
C319        C  0.01139370  0.42699853  0.52765172     0.27600
C320        C  0.99186292  0.42370959  0.97935532     0.27600
C321        C  0.01374403  0.53313225  0.55758498     0.36200
C322        C  0.02881799  0.47738717  0.56134941     0.36200
C323        C  0.01577929  0.52031395  0.93192458     0.36200
C324        C  0.00809080  0.46388946  0.93646639     0.36200
C325        C  0.96952446  0.60195750  0.50254444    -0.21200
C326        C  0.97132578  0.60025053  0.97139194    -0.21200
C327        C  0.99042032  0.39433313  0.52314724    -0.21200
C328        C  0.97251928  0.39356303  0.99232599    -0.21200
C329        C  0.03518933  0.52805162  0.58549290    -0.22300
C330        C  0.04546239  0.49293426  0.58770030    -0.22300
C331        C  0.03170305  0.50573685  0.90507776    -0.22300
C332        C  0.02616987  0.47008668  0.90781339    -0.22300
C333        C  0.99589123  0.56562426  0.54679705    -0.17700
C334        C  0.00973571  0.55668174  0.93738917    -0.17700
C335        C  0.99498402  0.43054246  0.94792351    -0.17600
C336        C  0.02600029  0.44071775  0.55608263    -0.17600
H337        H  0.95027646  0.62277634  0.51388306     0.15300
H338        H  0.95879951  0.61892695  0.95469401     0.15300
H339        H  0.98124674  0.37499681  0.54011735     0.15300
H340        H  0.95434005  0.37205748  0.98112639     0.15300
H341        H  0.04339184  0.54769239  0.60232755     0.13500
H342        H  0.06289098  0.48050446  0.60678327     0.13500
H343        H  0.04541596  0.51921359  0.88535309     0.13500
H344        H  0.03504707  0.45089361  0.89076117     0.13500
H345        H  0.03062463  0.52979990  0.49527599     0.26800
H346        H  0.03028211  0.46749780  0.99836897     0.26800
Fe347      Fe  0.01246985  0.15812245  0.73330836     1.65800
Fe348      Fe  0.06329156  0.22823650  0.76664927     1.73200
Fe349      Fe  0.95463518  0.23525330  0.72968153     1.54400
O350        O  0.94882279  0.20614380  0.68881042    -0.81000
O351        O  0.01666175  0.25202888  0.79559417    -0.79300
O352        O  0.01320584  0.17068215  0.68895189    -0.83500
O353        O  0.93640360  0.15230153  0.73309797    -0.78400
O354        O  0.99954553  0.26988403  0.70824678    -0.81600
O355        O  0.06346851  0.18514280  0.79728111    -0.82900
C356        C  0.90131586  0.17007072  0.74390661     0.97900
C357        C  0.97731027  0.18442835  0.67568320     1.05300
O358        O  0.01043073  0.20757136  0.74345173    -1.11900
O359        O  0.11798736  0.20667427  0.74132795    -0.74300
O360        O  0.08818032  0.15383602  0.73210569    -0.77800
O361        O  0.90599781  0.20216714  0.75050636    -0.78500
C362        C  0.12374477  0.17500298  0.73400771     0.96800
O363        O  0.01251851  0.14520697  0.77749203    -0.76500
O364        O  0.06625717  0.27258988  0.73749136    -0.81700
C365        C  0.97756612  0.26888065  0.79245803     0.99400
C366        C  0.04038201  0.28317746  0.71513537     1.05300
O367        O  0.95238327  0.26781218  0.76829028    -0.77300
C368        C  0.03847199  0.15666743  0.79894565     1.03600
N369        N  0.43343278  0.00698811  0.76021575    -0.36000
N370        N  0.50913023  0.06014426  0.76822894    -0.56500
N371        N  0.57397198  0.00048997  0.76952809    -0.36000
N372        N  0.49789080  0.94779061  0.76524609    -0.56500
C373        C  0.41019868  0.03694502  0.76758454     0.27600
C374        C  0.40375540  0.98019824  0.76821981     0.27600
C375        C  0.60275262  0.02712658  0.77905317     0.27600
C376        C  0.59707091  0.97022413  0.77646828     0.27600
C377        C  0.47341073  0.08016423  0.75633691     0.36200
C378        C  0.55158174  0.07670734  0.76258514     0.36200
C379        C  0.45739171  0.93119791  0.75539457     0.36200
C380        C  0.53639362  0.92772087  0.75764646     0.36200
C381        C  0.36630637  0.02925839  0.78142056    -0.21200
C382        C  0.36253070  0.99334698  0.78224034    -0.21200
C383        C  0.64342623  0.01361264  0.79348857    -0.21200
C384        C  0.63983620  0.97769745  0.79186911    -0.21200
C385        C  0.49297037  0.11030187  0.74371179    -0.22300
C386        C  0.54280099  0.10815743  0.74776650    -0.22300
C387        C  0.46993279  0.89971986  0.74199465    -0.22300
C388        C  0.52025140  0.89762622  0.74319820    -0.22300
C389        C  0.42390142  0.07043594  0.75726948    -0.17700
C390        C  0.40999826  0.94502496  0.75893745    -0.17700
C391        C  0.58520121  0.93702315  0.76424141    -0.17600
C392        C  0.59752207  0.06254810  0.77009154    -0.17600
H393        H  0.33906656  0.04771829  0.78899036     0.15300
H394        H  0.33179791  0.97863308  0.79084357     0.15300
H395        H  0.67390426  0.02816731  0.80262087     0.15300
H396        H  0.66702735  0.95917871  0.79952904     0.15300
H397        H  0.47368748  0.13114821  0.73224458     0.13500
H398        H  0.56940190  0.12697576  0.73982444     0.13500
H399        H  0.44564055  0.88073310  0.73186854     0.13500
H400        H  0.54215691  0.87658633  0.73419388     0.13500
H401        H  0.46350239  0.00527480  0.74595668     0.26800
H402        H  0.54527430  0.00281871  0.75430807     0.26800
Fe403      Fe  0.99530843  0.84351391  0.74802333     1.65800
Fe404      Fe  0.94447470  0.76477877  0.76436269     1.73200
Fe405      Fe  0.05352949  0.77051003  0.72723233     1.54400
O406        O  0.05520387  0.80912846  0.69259635    -0.81000
O407        O  0.99114848  0.73318681  0.78744027    -0.79300
O408        O  0.99526512  0.84708232  0.70265203    -0.83500
O409        O  0.07078883  0.85077025  0.74819025    -0.78400
O410        O  0.00875042  0.74162209  0.70016322    -0.80200
O411        O  0.94261915  0.79779245  0.80308265    -0.82900
C412        C  0.10757763  0.83124201  0.75239528     0.97900
C413        C  0.02772591  0.83498065  0.68541097     1.05300
O414        O  0.99746726  0.79252632  0.74640162    -1.11900
O415        O  0.88971333  0.79279319  0.74392928    -0.74300
O416        O  0.91957612  0.84664436  0.74763186    -0.77800
O417        O  0.10390247  0.79812395  0.75248341    -0.78500
C418        C  0.88414938  0.82566255  0.74382852     0.96800
O419        O  0.99624324  0.84084793  0.79335337    -0.76500
O420        O  0.94240044  0.72910754  0.72746594    -0.81700
C421        C  0.03171126  0.71942545  0.78146429     0.99400
C422        C  0.96884527  0.72548777  0.70386528     1.05300
O423        O  0.05803336  0.72917705  0.75920429    -0.77300
C424        C  0.96923122  0.82382462  0.81126005     1.03600
C425        C  0.00541310  0.01351110  0.96803991     0.02900
C426        C  0.98981480  0.97821750  0.97040581     0.02900
C427        C  0.97913950  0.96424035  0.99878112    -0.17600
C428        C  0.97688422  0.98522763  0.52538827     0.02900
C429        C  0.98591116  0.02170445  0.52283234     0.02900
C430        C  0.00656026  0.03420947  0.99418730    -0.17600
H431        H  0.01530525  0.06186943  0.99217503     0.04900
H432        H  0.97041265  0.93652725  0.00036506     0.04900
C433        C  0.03396662  0.89919740  0.63064948     0.30400
C434        C  0.03911339  0.93403070  0.62055688    -0.35900
C435        C  0.01247947  0.94302419  0.59464168     0.16400
C436        C  0.98289090  0.91935397  0.57996617     0.22200
C437        C  0.97822034  0.88460087  0.58981037    -0.34000
C438        C  0.00510229  0.87551078  0.61540827     0.16300
O439        O  0.05082737  0.88612934  0.65612122    -0.26100
C440        C  0.03356093  0.85342053  0.65678242     0.06100
C441        C  0.00495373  0.84542510  0.63195075    -0.30900
O442        O  0.96325165  0.93247174  0.55545996    -0.22800
C443        C  0.98035387  0.96510970  0.55394971    -0.02800
C444        C  0.01114811  0.97321932  0.57801524    -0.17200
H445        H  0.06162499  0.95287930  0.63232950     0.20800
H446        H  0.95504190  0.86594390  0.57831389     0.19200
H447        H  0.98243646  0.82244181  0.62854331     0.19100
H448        H  0.03291201  0.99656316  0.58137188     0.15000
C449        C  0.95814477  0.91505486  0.91661217     0.30400
C450        C  0.92710750  0.89198027  0.90096031    -0.35900
C451        C  0.94958355  0.86967339  0.88001268     0.16400
C452        C  0.99916646  0.87019401  0.87517175     0.22200
C453        C  0.03004642  0.89316663  0.89074534    -0.34000
C454        C  0.00758994  0.91565441  0.91128086     0.16300
O455        O  0.94513752  0.93795818  0.93728939    -0.26100
C456        C  0.98661719  0.95390916  0.94471454     0.06100
C457        C  0.02674511  0.94105992  0.92930796    -0.30900
O458        O  0.01214067  0.85048318  0.85239963    -0.22800
C459        C  0.97073216  0.83672903  0.84230583    -0.02800
C460        C  0.93031465  0.84751839  0.85879180    -0.17200
H461        H  0.88810636  0.89206812  0.90433531     0.20800
H462        H  0.06874290  0.89430706  0.88628940     0.19200
H463        H  0.06457822  0.94840923  0.93194230     0.19100
H464        H  0.89225894  0.84334186  0.85356161     0.15000
C465        C  0.21148673  0.88479682  0.74789103     0.30400
C466        C  0.23797880  0.91471525  0.73943642    -0.35900
C467        C  0.28841823  0.91334284  0.74419872     0.16400
C468        C  0.31152661  0.88489866  0.75701778     0.22200
C469        C  0.28502940  0.85451881  0.76486030    -0.34000
C470        C  0.23440090  0.85564665  0.75967784     0.16300
O471        O  0.16402898  0.88048615  0.74511516    -0.26100
C472        C  0.15605603  0.84794431  0.75493274     0.06100
C473        C  0.19861602  0.83116333  0.76423158    -0.30900
O474        O  0.35833558  0.89100960  0.76231104    -0.22800
C475        C  0.36521579  0.92380307  0.75256532    -0.02800
C476        C  0.32302820  0.93834446  0.74024435    -0.17200
H477        H  0.22037679  0.93770454  0.73012453     0.20800
H478        H  0.30247225  0.83186343  0.77483907     0.19200
H479        H  0.20267466  0.80460740  0.77252631     0.19100
H480        H  0.31774342  0.96471310  0.73173187     0.15000
C481        C  0.75956335  0.84660717  0.74654461     0.30400
C482        C  0.71041146  0.84257682  0.75518993    -0.35900
C483        C  0.68097016  0.87271753  0.75275145     0.16400
C484        C  0.69895083  0.90425552  0.74224712     0.22200
C485        C  0.74764708  0.90824276  0.73366236    -0.34000
C486        C  0.77693102  0.87847959  0.73638275     0.16300
O487        O  0.79460196  0.82298460  0.74908608    -0.26100
C488        C  0.83470924  0.84022239  0.74061141     0.06100
C489        C  0.82570028  0.87479250  0.73248309    -0.30900
O490        O  0.66688997  0.92967105  0.74364995    -0.22800
C491        C  0.62729296  0.91475958  0.75527316    -0.02800
C492        C  0.63380222  0.87910249  0.76137402    -0.17200
H493        H  0.69662013  0.81811639  0.76423638     0.20800
H494        H  0.76218675  0.93331721  0.72649379     0.19200
H495        H  0.85173767  0.89477768  0.72601287     0.19100
H496        H  0.60874777  0.86120264  0.77228230     0.15000
C497        C  0.99683224  0.09303764  0.57237353     0.30400
C498        C  0.01604418  0.12493918  0.58275727    -0.35900
C499        C  0.99033497  0.14134316  0.60608352     0.16400
C500        C  0.94856428  0.12734309  0.61844356     0.22200
C501        C  0.92940259  0.09526986  0.60810258    -0.34000
C502        C  0.95535096  0.07869855  0.58484578     0.16300
O503        O  0.01432276  0.07398397  0.55014065    -0.26100
C504        C  0.98425417  0.04659903  0.54849681     0.06100
C505        C  0.94687303  0.04808407  0.56969392    -0.30900
O506        O  0.93408488  0.14474069  0.64252630    -0.22800
C507        C  0.96674399  0.17039918  0.64563734    -0.02800
C508        C  0.00242482  0.16950409  0.62338730    -0.17200
H509        H  0.04932600  0.13587867  0.57366016     0.20800
H510        H  0.89738974  0.08351476  0.61814531     0.19200
H511        H  0.91641494  0.03029960  0.57231992     0.19100
H512        H  0.03605127  0.18433368  0.62263963     0.15000
C513        C  0.04467530  0.07021046  0.91043426     0.30400
C514        C  0.06707497  0.10062327  0.89884361    -0.35900
C515        C  0.05314032  0.11055837  0.86958155     0.16400
C516        C  0.01983520  0.09148774  0.85305453     0.22200
C517        C  0.99796509  0.06100574  0.86445402    -0.34000
C518        C  0.01164799  0.05126290  0.89363479     0.16300
O519        O  0.04860142  0.05814893  0.93817493    -0.26100
C520        C  0.01795947  0.03098006  0.93915790     0.06100
C521        C  0.99404628  0.02548198  0.91190567    -0.30900
O522        O  0.01080274  0.10566521  0.82669239    -0.22800
C523        C  0.03848707  0.13432096  0.82599161    -0.02800
C524        C  0.06583140  0.13888097  0.85213745    -0.17200
H525        H  0.09225972  0.11607301  0.91209502     0.20800
H526        H  0.97102329  0.04648508  0.85174518     0.19200
H527        H  0.96497575  0.00722875  0.90689589     0.19100
H528        H  0.09104509  0.15980614  0.85747091     0.15000
C529        C  0.71485741  0.09175216  0.75102595     0.30400
C530        C  0.76196417  0.08798908  0.73938687    -0.35900
C531        C  0.79379510  0.11612380  0.74428075     0.16400
C532        C  0.78015989  0.14613933  0.75936192     0.22200
C533        C  0.73275077  0.14998666  0.77091061    -0.34000
C534        C  0.70084000  0.12164275  0.76615422     0.16300
O535        O  0.68022524  0.06794148  0.75001699    -0.26100
C536        C  0.64309164  0.08258270  0.76449914     0.06100
C537        C  0.65374570  0.11613194  0.77508522    -0.30900
O538        O  0.81613623  0.16905283  0.76147444    -0.22800
C539        C  0.85330764  0.15332099  0.74777138    -0.02800
C540        C  0.84140792  0.12034561  0.73660810    -0.17200
H541        H  0.77323691  0.06446250  0.72773210     0.20800
H542        H  0.72173274  0.17323432  0.78304947     0.19200
H543        H  0.63080492  0.13330742  0.78824320     0.19100
H544        H  0.86441067  0.10226839  0.72440163     0.15000
C545        C  0.31396434  0.10289620  0.72880889     0.30400
C546        C  0.26619561  0.09839858  0.71829678    -0.35900
C547        C  0.23454954  0.12667105  0.72268805     0.16400
C548        C  0.24913040  0.15756267  0.73609244     0.22200
C549        C  0.29725239  0.16219658  0.74636735    -0.34000
C550        C  0.32888101  0.13362619  0.74233977     0.16300
O551        O  0.34702021  0.07811698  0.73049431    -0.26100
C552        C  0.38398860  0.09277935  0.74528701     0.06100
C553        C  0.37496168  0.12757380  0.75304719    -0.30900
O554        O  0.21243778  0.17932311  0.74032448    -0.22800
C555        C  0.17385156  0.16211104  0.72960123    -0.02800
C556        C  0.18552995  0.12917485  0.71832841    -0.17200
H557        H  0.25382091  0.07373175  0.70897234     0.20800
H558        H  0.30845978  0.18566619  0.75817629     0.19200
H559        H  0.39696509  0.14462810  0.76699170     0.19100
H560        H  0.16107248  0.10923176  0.70980515     0.15000
C561        C  0.03549396  0.39681033  0.62648548     0.30400
C562        C  0.02868562  0.39214735  0.65766684    -0.35900
C563        C  0.04536263  0.36029494  0.66992008     0.16400
C564        C  0.06692819  0.33469411  0.65260121     0.22200
C565        C  0.07441797  0.33963187  0.62149348    -0.34000
C566        C  0.05792110  0.37153460  0.60928118     0.16300
O567        O  0.02085455  0.42389234  0.61024899    -0.26100
C568        C  0.03435893  0.41623337  0.58214061     0.06100
C569        C  0.05770797  0.38382509  0.58031180    -0.30900
O570        O  0.07339396  0.30511431  0.66767254    -0.22800
C571        C  0.05690716  0.31187638  0.69530483    -0.02800
C572        C  0.03890109  0.34589747  0.69788246    -0.17200
H573        H  0.01004534  0.41147191  0.67122773     0.20800
H574        H  0.09010618  0.31935813  0.60753376     0.19200
H575        H  0.07239284  0.37117605  0.56050554     0.19100
H576        H  0.01853400  0.35687461  0.71647052     0.15000
C577        C  0.97353905  0.31200665  0.86162683     0.30400
C578        C  0.99092290  0.31838123  0.89087081    -0.35900
C579        C  0.98359096  0.35226577  0.90209573     0.16400
C580        C  0.96017750  0.37805888  0.88582795     0.22200
C581        C  0.94218100  0.37153733  0.85662020    -0.34000
C582        C  0.94984606  0.33758539  0.84520691     0.16300
O583        O  0.98245194  0.28377252  0.84559912    -0.26100
C584        C  0.96396430  0.29081706  0.81848814     0.06100
C585        C  0.94269021  0.32394608  0.81693954    -0.30900
O586        O  0.96022082  0.40850938  0.89995041    -0.22800
C587        C  0.98390406  0.40220874  0.92567971    -0.02800
C588        C  0.99957074  0.36756244  0.92802191    -0.17200
H589        H  0.01108808  0.29878605  0.90337898     0.20800
H590        H  0.92541757  0.39197585  0.84321991     0.19200
H591        H  0.92883637  0.33734450  0.79719126     0.19100
H592        H  0.02133859  0.35572435  0.94565474     0.15000
C593        C  0.96289432  0.68141473  0.63513376     0.30400
C594        C  0.97767797  0.67659115  0.60515557    -0.35900
C595        C  0.97540438  0.64225381  0.59407075     0.16400
C596        C  0.95893080  0.61444199  0.61111209     0.22200
C597        C  0.94362657  0.61929870  0.64123720    -0.34000
C598        C  0.94636508  0.65384603  0.65254256     0.16300
O599        O  0.96853223  0.71046129  0.65072001    -0.26100
C600        C  0.95503042  0.70210359  0.67864746     0.06100
C601        C  0.94047121  0.66706924  0.68117210    -0.30900
O602        O  0.96285058  0.58424763  0.59662745    -0.22800
C603        C  0.98218137  0.59276199  0.56988995    -0.02800
C604        C  0.99116800  0.62865743  0.56740624    -0.17200
H605        H  0.99245152  0.69793991  0.59186728     0.20800
H606        H  0.93252048  0.59744570  0.65526747     0.19200
H607        H  0.93204029  0.65262516  0.70154841     0.19100
H608        H  0.00899316  0.64263847  0.54924455     0.15000
C609        C  0.04130687  0.62376618  0.88521223     0.30400
C610        C  0.06555699  0.65401680  0.87457162    -0.35900
C611        C  0.05675677  0.66352702  0.84430609     0.16400
C612        C  0.02609908  0.64454472  0.82589816     0.22200
C613        C  0.00200555  0.61436640  0.83647556    -0.34000
C614        C  0.01070760  0.60496688  0.86663285     0.16300
O615        O  0.04397463  0.61015465  0.91270068    -0.26100
C616        C  0.01486885  0.58208298  0.91168309     0.06100
C617        C  0.99270909  0.57802325  0.88359666    -0.30900
O618        O  0.01840272  0.66013864  0.79973349    -0.22800
C619        C  0.04501120  0.68938476  0.80080330    -0.02800
C620        C  0.06957282  0.69287984  0.82818653    -0.17200
H621        H  0.08873326  0.66954620  0.88909073     0.20800
H622        H  0.97688870  0.59984676  0.82241464     0.19200
H623        H  0.96767412  0.55767164  0.87655173     0.19100
H624        H  0.08916308  0.71560615  0.83635813     0.15000
loop_ 
_geom_bond_atom_site_label_1 
_geom_bond_atom_site_label_2 
_geom_bond_distance 
_geom_bond_site_symmetry_2 
_ccdc_geom_bond_type 
N1           H33   1.044       .  S
N1            C5   1.358   1_456  A
N1          C318   1.357   1_455  A
N2            C9   1.354       .  A
N2           C10   1.356       .  A
N3           H34   1.041       .  S
N3            C8   1.360   1_455  A
N3          C319   1.357       .  A
N4           C11   1.354       .  A
N4           C12   1.355       .  A
C5           C13   1.391       .  A
C5           C21   1.430       .  A
C6          N313   1.355   1_655  A
C6           C22   1.416   1_655  A
C6           C14   1.383       .  A
C7          N315   1.354       .  A
C7           C15   1.385   1_455  A
C7           C24   1.415       .  A
C8           C23   1.427       .  A
C8           C16   1.388       .  A
C9           C21   1.418   1_455  A
C9           C17   1.386       .  A
C10          C24   1.418       .  A
C10          C18   1.387       .  A
C11          C19   1.387       .  A
C11          C22   1.417       .  A
C12          C20   1.386       .  A
C12          C23   1.416   1_455  A
C13         C326   1.381   1_554  A
C13          H25   1.081       .  S
C14         C325   1.379       .  A
C14          H26   1.082       .  S
C15         C328   1.377   1_554  A
C15          H27   1.082       .  S
C16         C327   1.380       .  A
C16          H28   1.081       .  S
C17          C18   1.373       .  A
C17          H29   1.082       .  S
C18          H30   1.081       .  S
C19          C20   1.372       .  A
C19          H31   1.082       .  S
C20          H32   1.082       .  S
C21         C291   1.505       .  S
C22         C304   1.490       .  S
C23         C275   1.505       .  S
C24         C256   1.497       .  S
Fe35         O51   2.019       .  S
Fe35         O41   2.091       .  S
Fe35         O48   2.077   1_655  S
Fe35         O40   2.021       .  S
Fe35         O46   1.945       .  S
Fe36         O39   2.031       .  S
Fe36         O43   2.119       .  S
Fe36         O47   2.047       .  S
Fe36         O52   2.112       .  S
Fe36         O46   1.949   1_455  S
Fe37         O55   2.138       .  S
Fe37         O42   2.036       .  S
Fe37         O49   2.059       .  S
Fe37         O38   2.142       .  S
Fe37         O46   1.960       .  S
O38          C45   1.284       .  A
O39          C53   1.261   1_455  A
O40          C45   1.262       .  A
O41          C44   1.272       .  A
O42          C54   1.266   1_655  A
O43          C56   1.284       .  A
C44         C227   1.474       .  S
C44          O49   1.266       .  A
C45         C195   1.469       .  S
O47          C50   1.260       .  A
O48          C50   1.266       .  A
C50         C243   1.470       .  S
O51          C56   1.268   1_655  A
O52          C54   1.280       .  A
C53         C272   1.488       .  S
C53          O55   1.280       .  A
C54         C259   1.466       .  S
C56         C211   1.464       .  S
N57          H89   1.040       .  S
N57          C62   1.358       .  A
N57          C61   1.355   1_565  A
N58          C65   1.348       .  A
N58          C66   1.350       .  A
N59          H90   1.042       .  S
N59          C64   1.350   1_545  A
N59          C63   1.350       .  A
N60          C67   1.351       .  A
N60          C68   1.355       .  A
C61          C69   1.384       .  A
C61          C77   1.416       .  A
C62          C78   1.424       .  A
C62          C70   1.391       .  A
C63          C71   1.387       .  A
C63          C80   1.407       .  A
C64          C79   1.409       .  A
C64          C72   1.387       .  A
C65          C77   1.412       .  A
C65          C73   1.388       .  A
C66          C80   1.410       .  A
C66          C74   1.384       .  A
C67          C75   1.386       .  A
C67          C78   1.419       .  A
C68          C76   1.387       .  A
C68          C79   1.422       .  A
C69          C70   1.371   1_545  A
C69          H81   1.082       .  S
C70          H82   1.078       .  S
C71          C72   1.374   1_545  A
C71          H83   1.083       .  S
C72          H84   1.082       .  S
C73          C74   1.382       .  A
C73          H85   1.082       .  S
C74          H86   1.082       .  S
C75          C76   1.381       .  A
C75          H87   1.080       .  S
C76          H88   1.078       .  S
C77         C240   1.487       .  S
C78         C163   1.495       .  S
C79         C179   1.499       .  S
C80         C224   1.481       .  S
Fe91        O107   2.013       .  S
Fe91         O97   2.087   1_655  S
Fe91        O104   2.096       .  S
Fe91         O96   2.029   1_655  S
Fe91        O102   1.969       .  S
Fe92         O95   2.032       .  S
Fe92         O99   2.136       .  S
Fe92        O103   2.046       .  S
Fe92        O108   2.122       .  S
Fe92        O102   1.983       .  S
Fe93        O111   2.118       .  S
Fe93         O98   2.033       .  S
Fe93        O105   2.056       .  S
Fe93         O94   2.112       .  S
Fe93        O102   1.975   1_455  S
O94         C101   1.280       .  A
O95         C109   1.262   1_655  A
O96         C101   1.265       .  A
O97         C100   1.269       .  A
O98         C110   1.261   1_455  A
O99         C112   1.283       .  A
C100        C160   1.475       .  S
C100        O105   1.263       .  A
C101        C128   1.463       .  S
O103        C106   1.262       .  A
O104        C106   1.272       .  A
C106        C176   1.477       .  S
O107        C112   1.262       .  A
O108        C110   1.279       .  A
C109        C307   1.473       .  S
C109        O111   1.279       .  A
C110        C288   1.478       .  S
C112        C147   1.472       .  S
C113        C114   1.416   1_545  A
C113        C118   1.406       .  A
C113        C208   1.480   1_655  S
C114        C115   1.397       .  A
C114        C144   1.480       .  S
C115        C428   1.408       .  A
C115        H120   1.085       .  S
C116        C117   1.418   1_565  A
C116        C427   1.404   1_554  A
C116        C131   1.483       .  S
C117        C430   1.405   1_654  A
C117        C192   1.486       .  S
C118        C429   1.403       .  A
C118        H119   1.085   1_655  S
C121        C126   1.379       .  A
C121        C122   1.405       .  A
C121        O127   1.317       .  A
C122        C123   1.402       .  A
C122        H133   1.082       .  S
C123        C132   1.365       .  A
C123        C124   1.378   1_455  A
C124        C125   1.405       .  A
C124        O130   1.316       .  A
C125        C126   1.402   1_655  A
C125        H134   1.082       .  S
C126        C129   1.365       .  A
O127        C128   1.332       .  A
C128        C129   1.391       .  A
C129        H135   1.083   1_455  S
O130        C131   1.334       .  A
C131        C132   1.394   1_655  A
C132        H136   1.082       .  S
C137        C142   1.379       .  A
C137        C138   1.411       .  A
C137        O143   1.322       .  A
C138        C139   1.409       .  A
C138        H149   1.082       .  S
C139        C148   1.375       .  A
C139        C140   1.379       .  A
C140        C141   1.403   1_655  A
C140        O146   1.313   1_655  A
C141        C142   1.399   1_455  A
C141        H150   1.082       .  S
C142        C145   1.364   1_655  A
O143        C144   1.334       .  A
C144        C145   1.389   1_655  A
C145        H151   1.082       .  S
O146        C147   1.331   1_455  A
C147        C148   1.396       .  A
C148        H152   1.082       .  S
C153        C158   1.380       .  A
C153        C154   1.407       .  A
C153        O159   1.320       .  A
C154        C155   1.405       .  A
C154        H165   1.082       .  S
C155        C164   1.367       .  A
C155        C156   1.378       .  A
C156        C157   1.407       .  A
C156        O162   1.319       .  A
C157        C158   1.405       .  A
C157        H166   1.082       .  S
C158        C161   1.368       .  A
O159        C160   1.332       .  A
C160        C161   1.392       .  A
C161        H167   1.082       .  S
O162        C163   1.333       .  A
C163        C164   1.394       .  A
C164        H168   1.082       .  S
C169        C174   1.379       .  A
C169        C170   1.407       .  A
C169        O175   1.318       .  A
C170        C171   1.404       .  A
C170        H181   1.082       .  S
C171        C180   1.369       .  A
C171        C172   1.377       .  A
C172        C173   1.407       .  A
C172        O178   1.316       .  A
C173        C174   1.404       .  A
C173        H182   1.082       .  S
C174        C177   1.368       .  A
O175        C176   1.333       .  A
C176        C177   1.393       .  A
C177        H183   1.082       .  S
O178        C179   1.336       .  A
C179        C180   1.396       .  A
C180        H184   1.081       .  S
C185        C190   1.378       .  A
C185        C186   1.405   1_655  A
C185        O191   1.319   1_655  A
C186        C187   1.404   1_455  A
C186        H197   1.082       .  S
C187        C196   1.364       .  A
C187        C188   1.378       .  A
C188        C189   1.408       .  A
C188        O194   1.321       .  A
C189        C190   1.406       .  A
C189        H198   1.082       .  S
C190        C193   1.368       .  A
O191        C192   1.333   1_455  A
C192        C193   1.394       .  A
C193        H199   1.082       .  S
O194        C195   1.333       .  A
C195        C196   1.395       .  A
C196        H200   1.083   1_655  S
C201        C206   1.378   1_455  A
C201        C202   1.406       .  A
C201        O207   1.315       .  A
C202        C203   1.402       .  A
C202        H213   1.082       .  S
C203        C212   1.368       .  A
C203        C204   1.380       .  A
C204        C205   1.399   1_455  A
C204        O210   1.310   1_455  A
C205        C206   1.396       .  A
C205        H214   1.082       .  S
C206        C209   1.359       .  A
O207        C208   1.333       .  A
C208        C209   1.392   1_455  A
C209        H215   1.081       .  S
O210        C211   1.329   1_655  A
C211        C212   1.391       .  A
C212        H216   1.082       .  S
C217        C222   1.380       .  A
C217        C218   1.401       .  A
C217        O223   1.314       .  A
C218        C219   1.400       .  A
C218        H229   1.083       .  S
C219        C228   1.360       .  A
C219        C220   1.380       .  A
C220        C221   1.408       .  A
C220        O226   1.321       .  A
C221        C222   1.406       .  A
C221        H230   1.082       .  S
C222        C225   1.369       .  A
O223        C224   1.331       .  A
C224        C225   1.393       .  A
C225        H231   1.082       .  S
O226        C227   1.333       .  A
C227        C228   1.391       .  A
C228        H232   1.083       .  S
C233        C238   1.380       .  A
C233        C234   1.402       .  A
C233        O239   1.315       .  A
C234        C235   1.400       .  A
C234        H245   1.082       .  S
C235        C244   1.362       .  A
C235        C236   1.380       .  A
C236        C237   1.406       .  A
C236        O242   1.318       .  A
C237        C238   1.404       .  A
C237        H246   1.082       .  S
C238        C241   1.366       .  A
O239        C240   1.331       .  A
C240        C241   1.393       .  A
C241        H247   1.082       .  S
O242        C243   1.332       .  A
C243        C244   1.390       .  A
C244        H248   1.083       .  S
C249        C254   1.379       .  A
C249        C250   1.403       .  A
C249        O255   1.319       .  A
C250        C251   1.403       .  A
C250        H261   1.082   1_455  S
C251        C260   1.361       .  A
C251        C252   1.379       .  A
C252        C253   1.408       .  A
C252        O258   1.322       .  A
C253        C254   1.407       .  A
C253        H262   1.082       .  S
C254        C257   1.365       .  A
O255        C256   1.332       .  A
C256        C257   1.397       .  A
C257        H263   1.082       .  S
O258        C259   1.334       .  A
C259        C260   1.390       .  A
C260        H264   1.083       .  S
C265        C270   1.378       .  A
C265        C266   1.406       .  A
C265        O271   1.316       .  A
C266        C267   1.402       .  A
C266        H277   1.082   1_655  S
C267        C276   1.367   1_655  A
C267        C268   1.377       .  A
C268        C269   1.416       .  A
C268        O274   1.325       .  A
C269        C270   1.413       .  A
C269        H278   1.082       .  S
C270        C273   1.381       .  A
O271        C272   1.333       .  A
C272        C273   1.399       .  A
C273        H279   1.082       .  S
O274        C275   1.339       .  A
C275        C276   1.393   1_655  A
C276        H280   1.082       .  S
C281        C286   1.379       .  A
C281        C282   1.404       .  A
C281        O287   1.316       .  A
C282        C283   1.401       .  A
C282        H293   1.082       .  S
C283        C292   1.364       .  A
C283        C284   1.377       .  A
C284        C285   1.412       .  A
C284        O290   1.323       .  A
C285        C286   1.411       .  A
C285        H294   1.082       .  S
C286        C289   1.376       .  A
O287        C288   1.332       .  A
C288        C289   1.397       .  A
C289        H295   1.082       .  S
O290        C291   1.338       .  A
C291        C292   1.394       .  A
C292        H296   1.082   1_655  S
C297        C302   1.379   1_455  A
C297        C298   1.410       .  A
C297        O303   1.324       .  A
C298        C299   1.409       .  A
C298        H309   1.082       .  S
C299        C308   1.373       .  A
C299        C300   1.379       .  A
C300        C301   1.404   1_455  A
C300        O306   1.316   1_455  A
C301        C302   1.402       .  A
C301        H310   1.082       .  S
C302        C305   1.362       .  A
O303        C304   1.334       .  A
C304        C305   1.392   1_455  A
C305        H311   1.082       .  S
O306        C307   1.332   1_655  A
C307        C308   1.394       .  A
C308        H312   1.082       .  S
N313        H345   1.041       .  S
N313        C317   1.360   1_455  A
N314        C321   1.355       .  A
N314        C322   1.355       .  A
N315        H346   1.043   1_554  S
N315        C320   1.356   1_454  A
N316        C323   1.355       .  A
N316        C324   1.353       .  A
C317        C325   1.390       .  A
C317        C333   1.428       .  A
C318        C334   1.419   1_655  A
C318        C326   1.383       .  A
C319        C327   1.386   1_455  A
C319        C336   1.424       .  A
C320        C335   1.421       .  A
C320        C328   1.389       .  A
C321        C333   1.415   1_455  A
C321        C329   1.384       .  A
C322        C336   1.420       .  A
C322        C330   1.389       .  A
C323        C331   1.387       .  A
C323        C334   1.418       .  A
C324        C332   1.385       .  A
C324        C335   1.414   1_455  A
C325        H337   1.080       .  S
C326        H338   1.082       .  S
C327        H339   1.082       .  S
C328        H340   1.081       .  S
C329        C330   1.372       .  A
C329        H341   1.082       .  S
C330        H342   1.081       .  S
C331        C332   1.372       .  A
C331        H343   1.081       .  S
C332        H344   1.082       .  S
C333        C603   1.507       .  S
C334        C616   1.501       .  S
C335        C587   1.496       .  S
C336        C568   1.502       .  S
Fe347       O363   2.020       .  S
Fe347       O353   2.101   1_455  S
Fe347       O360   2.088       .  S
Fe347       O352   2.024       .  S
Fe347       O358   1.940       .  S
Fe348       O351   2.032       .  S
Fe348       O355   2.129       .  S
Fe348       O359   2.052       .  S
Fe348       O364   2.128       .  S
Fe348       O358   1.946       .  S
Fe349       O367   2.119       .  S
Fe349       O354   2.039       .  S
Fe349       O361   2.054       .  S
Fe349       O350   2.134       .  S
Fe349       O358   1.959   1_655  S
O350        C357   1.282       .  A
O351        C365   1.260   1_455  A
O352        C357   1.262   1_455  A
O353        C356   1.274       .  A
O354        C366   1.268   1_655  A
O355        C368   1.285       .  A
C356        C539   1.474       .  S
C356        O361   1.265       .  A
C357        C507   1.466       .  S
O359        C362   1.261       .  A
O360        C362   1.269       .  A
C362        C555   1.476       .  S
O363        C368   1.267       .  A
O364        C366   1.284       .  A
C365        C584   1.477       .  S
C365        O367   1.276       .  A
C366        C571   1.473       .  S
C368        C523   1.470       .  S
N369        H401   1.043       .  S
N369        C374   1.353   1_545  A
N369        C373   1.350       .  A
N370        C377   1.350       .  A
N370        C378   1.349       .  A
N371        H402   1.041       .  S
N371        C376   1.353   1_545  A
N371        C375   1.354       .  A
N372        C379   1.352       .  A
N372        C380   1.350       .  A
C373        C381   1.384       .  A
C373        C389   1.406       .  A
C374        C390   1.415       .  A
C374        C382   1.388       .  A
C375        C383   1.387       .  A
C375        C392   1.414       .  A
C376        C391   1.416       .  A
C376        C384   1.388       .  A
C377        C389   1.410       .  A
C377        C385   1.385       .  A
C378        C392   1.413       .  A
C378        C386   1.387       .  A
C379        C387   1.385       .  A
C379        C390   1.415       .  A
C380        C388   1.388       .  A
C380        C391   1.417       .  A
C381        C382   1.373   1_545  A
C381        H393   1.083       .  S
C382        H394   1.082       .  S
C383        C384   1.375   1_545  A
C383        H395   1.083       .  S
C384        H396   1.083       .  S
C385        C386   1.383       .  A
C385        H397   1.082       .  S
C386        H398   1.082       .  S
C387        C388   1.386       .  A
C387        H399   1.082       .  S
C388        H400   1.081       .  S
C389        C552   1.487       .  S
C390        C475   1.498       .  S
C391        C491   1.491       .  S
C392        C536   1.486       .  S
Fe403       O419   2.014       .  S
Fe403       O409   2.092   1_655  S
Fe403       O416   2.085       .  S
Fe403       O408   2.017       .  S
Fe403       O414   1.946       .  S
Fe404       O407   2.035       .  S
Fe404       O411   2.133       .  S
Fe404       O415   2.055       .  S
Fe404       O420   2.132       .  S
Fe404       O414   1.966       .  S
Fe405       O423   2.121       .  S
Fe405       O410   2.042       .  S
Fe405       O417   2.068       .  S
Fe405       O406   2.126       .  S
Fe405       O414   1.952   1_455  S
O406        C413   1.282       .  A
O407        C421   1.261   1_655  A
O408        C413   1.264   1_655  A
O409        C412   1.270       .  A
O410        C422   1.267   1_455  A
O411        C424   1.285       .  A
C412        C472   1.480       .  S
C412        O417   1.266       .  A
C413        C440   1.459       .  S
O415        C418   1.263       .  A
O416        C418   1.270       .  A
C418        C488   1.475       .  S
O419        C424   1.265       .  A
O420        C422   1.283       .  A
C421        C619   1.475       .  S
C421        O423   1.279       .  A
C422        C600   1.481       .  S
C424        C459   1.464       .  S
C425        C426   1.415   1_445  A
C425        C430   1.405       .  A
C425        C520   1.483       .  S
C426        C427   1.397       .  A
C426        C456   1.473       .  S
C427        H432   1.085   1_556  S
C428        C429   1.416   1_565  A
C428        C443   1.483       .  S
C429        C504   1.485       .  S
C430        H431   1.085       .  S
C433        C438   1.379       .  A
C433        C434   1.407       .  A
C433        O439   1.318       .  A
C434        C435   1.404       .  A
C434        H445   1.082       .  S
C435        C444   1.366       .  A
C435        C436   1.378   1_455  A
C436        C437   1.400       .  A
C436        O442   1.312       .  A
C437        C438   1.397   1_655  A
C437        H446   1.082       .  S
C438        C441   1.360       .  A
O439        C440   1.334       .  A
C440        C441   1.387       .  A
C441        H447   1.083   1_455  S
O442        C443   1.331       .  A
C443        C444   1.397   1_655  A
C444        H448   1.082       .  S
C449        C454   1.379   1_655  A
C449        C450   1.408       .  A
C449        O455   1.318       .  A
C450        C451   1.406       .  A
C450        H461   1.082       .  S
C451        C460   1.372       .  A
C451        C452   1.379       .  A
C452        C453   1.401   1_655  A
C452        O458   1.311   1_655  A
C453        C454   1.398       .  A
C453        H462   1.082       .  S
C454        C457   1.362       .  A
O455        C456   1.332       .  A
C456        C457   1.389   1_655  A
C457        H463   1.082       .  S
O458        C459   1.330   1_455  A
C459        C460   1.394       .  A
C460        H464   1.082       .  S
C465        C470   1.380       .  A
C465        C466   1.402       .  A
C465        O471   1.320       .  A
C466        C467   1.403       .  A
C466        H477   1.083       .  S
C467        C476   1.356       .  A
C467        C468   1.379       .  A
C468        C469   1.410       .  A
C468        O474   1.327       .  A
C469        C470   1.410       .  A
C469        H478   1.082       .  S
C470        C473   1.369       .  A
O471        C472   1.332       .  A
C472        C473   1.395       .  A
C473        H479   1.082       .  S
O474        C475   1.335       .  A
C475        C476   1.396       .  A
C476        H480   1.083       .  S
C481        C486   1.379       .  A
C481        C482   1.412       .  A
C481        O487   1.324       .  A
C482        C483   1.410       .  A
C482        H493   1.082       .  S
C483        C492   1.374       .  A
C483        C484   1.379       .  A
C484        C485   1.399       .  A
C484        O490   1.312       .  A
C485        C486   1.397       .  A
C485        H494   1.082       .  S
C486        C489   1.359       .  A
O487        C488   1.336       .  A
C488        C489   1.388       .  A
C489        H495   1.083       .  S
O490        C491   1.330       .  A
C491        C492   1.397       .  A
C492        H496   1.082       .  S
C497        C502   1.379       .  A
C497        C498   1.404   1_655  A
C497        O503   1.318   1_655  A
C498        C499   1.403   1_455  A
C498        H509   1.082       .  S
C499        C508   1.362   1_655  A
C499        C500   1.378       .  A
C500        C501   1.408       .  A
C500        O506   1.321       .  A
C501        C502   1.407       .  A
C501        H510   1.082       .  S
C502        C505   1.368       .  A
O503        C504   1.332   1_455  A
C504        C505   1.395       .  A
C505        H511   1.082       .  S
O506        C507   1.334       .  A
C507        C508   1.392   1_655  A
C508        H512   1.083       .  S
C513        C518   1.378       .  A
C513        C514   1.408       .  A
C513        O519   1.317       .  A
C514        C515   1.404       .  A
C514        H525   1.082       .  S
C515        C524   1.371       .  A
C515        C516   1.379       .  A
C516        C517   1.401   1_455  A
C516        O522   1.311       .  A
C517        C518   1.397   1_655  A
C517        H526   1.082       .  S
C518        C521   1.361   1_455  A
O519        C520   1.334       .  A
C520        C521   1.392   1_455  A
C521        H527   1.082       .  S
O522        C523   1.330       .  A
C523        C524   1.393       .  A
C524        H528   1.082       .  S
C529        C534   1.380       .  A
C529        C530   1.402       .  A
C529        O535   1.315       .  A
C530        C531   1.400       .  A
C530        H541   1.082       .  S
C531        C540   1.361       .  A
C531        C532   1.380       .  A
C532        C533   1.408       .  A
C532        O538   1.321       .  A
C533        C534   1.407       .  A
C533        H542   1.082       .  S
C534        C537   1.369       .  A
O535        C536   1.331       .  A
C536        C537   1.394       .  A
C537        H543   1.082       .  S
O538        C539   1.333       .  A
C539        C540   1.391       .  A
C540        H544   1.083       .  S
C545        C550   1.379       .  A
C545        C546   1.403       .  A
C545        O551   1.314       .  A
C546        C547   1.400       .  A
C546        H557   1.082       .  S
C547        C556   1.364       .  A
C547        C548   1.379       .  A
C548        C549   1.409       .  A
C548        O554   1.321       .  A
C549        C550   1.407       .  A
C549        H558   1.082       .  S
C550        C553   1.372       .  A
O551        C552   1.332       .  A
C552        C553   1.394       .  A
C553        H559   1.082       .  S
O554        C555   1.334       .  A
C555        C556   1.391       .  A
C556        H560   1.083       .  S
C561        C566   1.378       .  A
C561        C562   1.407       .  A
C561        O567   1.320       .  A
C562        C563   1.406       .  A
C562        H573   1.082       .  S
C563        C572   1.367       .  A
C563        C564   1.379       .  A
C564        C565   1.408       .  A
C564        O570   1.322       .  A
C565        C566   1.406       .  A
C565        H574   1.082       .  S
C566        C569   1.367       .  A
O567        C568   1.335       .  A
C568        C569   1.396       .  A
C569        H575   1.082       .  S
O570        C571   1.333       .  A
C571        C572   1.394       .  A
C572        H576   1.083       .  S
C577        C582   1.379       .  A
C577        C578   1.404       .  A
C577        O583   1.315       .  A
C578        C579   1.401       .  A
C578        H589   1.082   1_655  S
C579        C588   1.363       .  A
C579        C580   1.378       .  A
C580        C581   1.409       .  A
C580        O586   1.321       .  A
C581        C582   1.407       .  A
C581        H590   1.082       .  S
C582        C585   1.373       .  A
O583        C584   1.332       .  A
C584        C585   1.394       .  A
C585        H591   1.082       .  S
O586        C587   1.335       .  A
C587        C588   1.394       .  A
C588        H592   1.082   1_655  S
C593        C598   1.379       .  A
C593        C594   1.404       .  A
C593        O599   1.316       .  A
C594        C595   1.401       .  A
C594        H605   1.082       .  S
C595        C604   1.364       .  A
C595        C596   1.377       .  A
C596        C597   1.414       .  A
C596        O602   1.324       .  A
C597        C598   1.412       .  A
C597        H606   1.082       .  S
C598        C601   1.378       .  A
O599        C600   1.331       .  A
C600        C601   1.398       .  A
C601        H607   1.082       .  S
O602        C603   1.339       .  A
C603        C604   1.394       .  A
C604        H608   1.082   1_655  S
C609        C614   1.378       .  A
C609        C610   1.411       .  A
C609        O615   1.326       .  A
C610        C611   1.411       .  A
C610        H621   1.082       .  S
C611        C620   1.372       .  A
C611        C612   1.378       .  A
C612        C613   1.406       .  A
C612        O618   1.320       .  A
C613        C614   1.405       .  A
C613        H622   1.082   1_455  S
C614        C617   1.364   1_455  A
O615        C616   1.336       .  A
C616        C617   1.395   1_455  A
C617        H623   1.082       .  S
O618        C619   1.333       .  A
C619        C620   1.396       .  A
C620        H624   1.082       .  S
