geometry optimzed in LAMMPS
_audit_creation_date              2020-12-01 
_audit_creation_method            'lammps2cif' 
_symmetry_space_group_name_H-M    'P1' 
_symmetry_Int_Tables_number       1 
_symmetry_cell_setting            triclinic 
loop_ 
_symmetry_equiv_pos_as_xyz 
  x,y,z 
_cell_length_a                    39.85209866 
_cell_length_b                    32.61266301471325 
_cell_length_c                    76.06911597209037 
_cell_angle_alpha                 89.10555390600882 
_cell_angle_beta                  89.13257502660386 
_cell_angle_gamma                 88.55418983831963 
loop_ 
_atom_site_label 
_atom_site_type_symbol 
_atom_site_fract_x 
_atom_site_fract_y 
_atom_site_fract_z 
_atom_site_charge 
N1          N  0.02747284  0.24724362  0.88378965    -0.03100
C2          C  0.02100221  0.24412980  0.90137764    -0.00500
C3          C  0.98799503  0.25551610  0.90513761    -0.23400
C4          C  0.47852592  0.27932664  0.88961462    -0.23600
C5          C  0.99756693  0.25967834  0.87668708    -0.00600
H6          H  0.48064559  0.27206212  0.91800709     0.13200
H7          H  0.45328677  0.29155792  0.88780400     0.13200
N8          N  0.05827530  0.26166414  0.87688454    -0.03100
C9          C  0.06680514  0.30076636  0.88051948    -0.00500
C10         C  0.07636776  0.32173610  0.86549510    -0.23400
C11         C  0.07554282  0.29421196  0.85217073    -0.23600
C12         C  0.06624075  0.25700846  0.85956393    -0.00600
H13         H  0.08678056  0.35204972  0.86468591     0.13200
H14         H  0.08660766  0.29888208  0.83922563     0.13200
In15       In  0.29143946  0.21024285  0.75897559     1.36900
C16         C  0.34271941  0.22309637  0.78029157     0.78000
O17         O  0.26656933  0.21672949  0.78546403    -0.60500
O18         O  0.24829954  0.17177264  0.76835607    -0.51400
C19         C  0.25986289  0.26750483  0.73866360     0.70700
O20         O  0.29013595  0.27002543  0.74299770    -0.46200
C21         C  0.32043330  0.15827009  0.73620135     0.75400
O22         O  0.32539616  0.25212323  0.77349495    -0.58100
O23         O  0.29577872  0.14814551  0.74575791    -0.48200
O24         O  0.33354186  0.18775854  0.77620438    -0.54500
C25         C  0.24550507  0.18924634  0.78301909     0.85500
O26         O  0.24569084  0.23668885  0.74519073    -0.56400
O27         O  0.32898493  0.19483021  0.73792811    -0.59700
N28         N  0.32679155  0.16525170  0.37517953    -0.03100
C29         C  0.31777530  0.12592410  0.37896158    -0.00500
C30         C  0.30945288  0.10540541  0.36403423    -0.23400
C31         C  0.31153002  0.13317825  0.35053569    -0.23600
C32         C  0.32022612  0.17022449  0.35766673    -0.00600
H33         H  0.29987395  0.07472795  0.36328773     0.13200
H34         H  0.30196205  0.12861380  0.33747876     0.13200
N35         N  0.35707847  0.17932448  0.38236738    -0.03100
C36         C  0.36142728  0.18057557  0.40015201    -0.00500
C37         C  0.39183294  0.16211149  0.40469874    -0.23400
C38         C  0.40806692  0.15193099  0.38947229    -0.23600
C39         C  0.38696148  0.16373828  0.37604243    -0.00600
H40         H  0.40335172  0.16199941  0.41750169     0.13200
H41         H  0.43388528  0.14110670  0.38826995     0.13200
In42       In  0.09147383  0.24017695  0.25944185     1.36900
C43         C  0.14104997  0.25456941  0.28204580     0.78000
O44         O  0.05083904  0.25900579  0.27864399    -0.60500
O45         O  0.05997685  0.19522802  0.27446103    -0.51400
C46         C  0.05671049  0.29277351  0.23852369     0.70700
O47         O  0.08171922  0.30381519  0.24714354    -0.46200
C48         C  0.12104854  0.18550639  0.23745321     0.75400
O49         O  0.13850882  0.27335348  0.26746130    -0.58100
O50         O  0.09406084  0.17849549  0.24569718    -0.48200
O51         O  0.11776849  0.23009739  0.28524316    -0.54500
C52         C  0.04275083  0.22259328  0.28237174     0.85500
O53         O  0.05030221  0.25538166  0.24043983    -0.56400
O54         O  0.13258240  0.22024821  0.24042985    -0.59700
N55         N  0.17305799  0.42981457  0.62373710    -0.03100
C56         C  0.15952112  0.40246238  0.63531030    -0.00500
C57         C  0.15587409  0.36538539  0.62684566    -0.23400
C58         C  0.17006826  0.36907684  0.61034622    -0.23600
C59         C  0.18140836  0.40853150  0.60898799    -0.00600
H60         H  0.14912832  0.33651754  0.63298959     0.13200
H61         H  0.17477150  0.34442946  0.60120412     0.13200
N62         N  0.16417172  0.47225697  0.62304476    -0.03100
C63         C  0.17945391  0.50115158  0.63260241    -0.00500
C64         C  0.18360774  0.53605497  0.62210441    -0.23400
C65         C  0.16787865  0.52986497  0.60650063    -0.23600
C66         C  0.15534248  0.49105362  0.60765918    -0.00600
H67         H  0.19177182  0.56563699  0.62639822     0.13200
H68         H  0.16324987  0.55256597  0.59623877     0.13200
In69       In  0.42215557  0.45946382  0.50328653     1.36900
C70         C  0.36521571  0.46681293  0.52226578     0.78000
O71         O  0.40524628  0.43839394  0.47691476    -0.60500
O72         O  0.41712941  0.39293935  0.49624895    -0.51400
C73         C  0.44899522  0.52275990  0.48543901     0.70700
O74         O  0.41792890  0.52240084  0.48909104    -0.46200
C75         C  0.47112257  0.44108501  0.52590116     0.75400
O76         O  0.38948479  0.49044195  0.52431611    -0.58100
O77         O  0.47247094  0.43068729  0.51000701    -0.48200
O78         O  0.36948338  0.44205726  0.50988867    -0.54500
C79         C  0.40627066  0.40070601  0.48099463     0.85500
O80         O  0.46499133  0.49163038  0.49089771    -0.56400
O81         O  0.44352811  0.45749135  0.53061128    -0.59700
N82         N  0.28608558  0.75030759  0.88491541    -0.03100
C83         C  0.27891942  0.74810452  0.90250376    -0.00500
C84         C  0.24568206  0.75943633  0.90573673    -0.23400
C85         C  0.23148187  0.76807925  0.88988465    -0.23600
C86         C  0.25632288  0.76202375  0.87735319    -0.00600
H87         H  0.23214628  0.75723774  0.91814953     0.13200
H88         H  0.20519670  0.77511756  0.88760746     0.13200
N89         N  0.31737932  0.76368274  0.87807220    -0.03100
C90         C  0.32692143  0.80233016  0.88198834    -0.00500
C91         C  0.33517720  0.82424693  0.86698520    -0.23400
C92         C  0.33295096  0.79779174  0.85338112    -0.23600
C93         C  0.32463986  0.76001377  0.86056256    -0.00600
H94         H  0.34566197  0.85453318  0.86624615     0.13200
H95         H  0.34316979  0.80334692  0.84030900     0.13200
In96       In  0.05864381  0.71509521  0.75464075     1.36900
C97         C  0.01055098  0.69459901  0.77824284     0.78000
O98         O  0.10218765  0.69205882  0.77103331    -0.60500
O99         O  0.09115232  0.75611033  0.77020458    -0.51400
C100        C  0.08372938  0.66230579  0.73036150     0.70700
O101        O  0.05847467  0.65438227  0.73989361    -0.46200
C102        C  0.03072641  0.78023835  0.73717873     0.75400
O103        O  0.00921935  0.68586937  0.76215740    -0.58100
O104        O  0.06182523  0.77641649  0.73968790    -0.48200
O105        O  0.03739744  0.71127546  0.78243540    -0.54500
C106        C  0.10988120  0.72731579  0.77609078     0.85500
O107        O  0.09532449  0.69712217  0.73299904    -0.56400
O108        O  0.01427120  0.75120159  0.74366271    -0.59700
N109        N  0.21797352  0.95813292  0.13191900    -0.03100
C110        C  0.20350945  0.93374498  0.14440574    -0.00500
C111        C  0.20117135  0.89446531  0.13779958    -0.23400
C112        C  0.21808768  0.89357154  0.12202316    -0.23600
C113        C  0.22906112  0.93279132  0.11886801    -0.00600
H114        H  0.19405990  0.86726869  0.14516107     0.13200
H115        H  0.22436597  0.86624048  0.11468002     0.13200
N116        N  0.20633381  0.99877849  0.12822621    -0.03100
C117        C  0.21490911  0.03257751  0.13722103    -0.00500
C118        C  0.21367460  0.06646852  0.12595959    -0.23400
C119        C  0.20266988  0.05355644  0.11000106    -0.23600
C120        C  0.19765073  0.01207710  0.11182668    -0.00600
H121        H  0.21585255  0.09822276  0.12962634     0.13200
H122        H  0.19563407  0.07305462  0.09894794     0.13200
In123      In  0.46746487  0.97358413  0.00821174     1.36900
C124        C  0.51823379  0.95670032  0.02975667     0.78000
O125        O  0.50395812  0.99650180  0.98769485    -0.60500
O126        O  0.47189028  0.04053652  0.00004464    -0.51400
C127        C  0.43772658  0.93236910  0.98294405     0.70700
O128        O  0.45948392  0.91541159  0.99284944    -0.46200
C129        C  0.41527553  0.97269406  0.03062033     0.75400
O130        O  0.51505565  0.93796513  0.01548656    -0.58100
O131        O  0.42908655  0.00578377  0.02596018    -0.48200
O132        O  0.49477100  0.98181378  0.03330844    -0.54500
C133        C  0.49494946  0.03368984  0.98876559     0.85500
O134        O  0.43192800  0.96986958  0.98601565    -0.56400
O135        O  0.42818738  0.94086850  0.02378345    -0.59700
N136        N  0.46866770  0.45493945  0.12164055    -0.03100
C137        C  0.45806373  0.42821314  0.13429538    -0.00500
C138        C  0.94028063  0.37436217  0.12846100    -0.23400
C139        C  0.95427370  0.37634346  0.11190508    -0.23600
C140        C  0.47704101  0.43227734  0.10730273    -0.00600
H141        H  0.93366089  0.34605682  0.13511918     0.13200
H142        H  0.95897563  0.35044309  0.10342637     0.13200
N143        N  0.45892773  0.49704223  0.12040352    -0.03100
C144        C  0.47050213  0.52704061  0.13068033    -0.00500
C145        C  0.47155238  0.56331031  0.12082476    -0.23400
C146        C  0.45793879  0.55594438  0.10471814    -0.23600
C147        C  0.44972575  0.51525754  0.10499658    -0.00600
H148        H  0.47595288  0.59360170  0.12580333     0.13200
H149        H  0.45101534  0.57878829  0.09486947     0.13200
In150      In  0.21069324  0.47263535  0.00452277     1.36900
C151        C  0.15788670  0.46495890  0.02609314     0.78000
O152        O  0.17364392  0.47130180  0.98283910    -0.60500
O153        O  0.20265669  0.41679704  0.98810596    -0.51400
C154        C  0.23935462  0.53351833  0.98621552     0.70700
O155        O  0.21719847  0.54042237  0.99801457    -0.46200
C156        C  0.26193105  0.45741274  0.02599636     0.75400
O157        O  0.16907555  0.49971437  0.02154651    -0.58100
O158        O  0.25957435  0.43914345  0.01152823    -0.48200
O159        O  0.17425651  0.43460611  0.01995502    -0.54500
C160        C  0.17942611  0.43405156  0.97921518     0.85500
O161        O  0.24598726  0.49600780  0.98382418    -0.56400
O162        O  0.23740870  0.48095616  0.02970249    -0.59700
N163        N  0.06913696  0.67896018  0.37346442    -0.03100
C164        C  0.07856662  0.65220048  0.38641528    -0.00500
C165        C  0.08272458  0.61344914  0.37929557    -0.23400
C166        C  0.07253058  0.61587089  0.36215256    -0.23600
C167        C  0.06323142  0.65632888  0.35896697    -0.00600
H168        H  0.08653674  0.58497736  0.38659105     0.13200
H169        H  0.56940552  0.58854224  0.36038551     0.13200
N170        N  0.07914556  0.72038101  0.37241118    -0.03100
C171        C  0.06754426  0.75108257  0.38289408    -0.00500
C172        C  0.06828890  0.78775128  0.37333334    -0.23400
C173        C  0.08298689  0.77961822  0.35725165    -0.23600
C174        C  0.09005793  0.73814385  0.35722665    -0.00600
H175        H  0.06432176  0.81821461  0.37855786     0.13200
H176        H  0.09144601  0.80211810  0.34767370     0.13200
In177      In  0.33133603  0.70914028  0.25473228     1.36900
C178        C  0.38397649  0.70551289  0.27587315     0.78000
O179        O  0.30639870  0.71283444  0.28125372    -0.60500
O180        O  0.28515648  0.67419639  0.26234732    -0.51400
C181        C  0.30342138  0.77392501  0.23761222     0.70700
O182        O  0.33299660  0.77419580  0.24334472    -0.46200
C183        C  0.35815698  0.66301217  0.22943223     0.75400
O184        O  0.37307686  0.67481762  0.26809451    -0.58100
O185        O  0.33412140  0.65076820  0.23901679    -0.48200
O186        O  0.36763978  0.73870388  0.27297694    -0.54500
C187        C  0.28304859  0.68923900  0.27753916     0.85500
O188        O  0.28850404  0.74105739  0.24081919    -0.56400
O189        O  0.36656463  0.69935578  0.23213227    -0.59700
N190        N  0.43865922  0.94245225  0.63162918    -0.03100
C191        C  0.42610009  0.91394924  0.64301002    -0.00500
C192        C  0.92358541  0.88669973  0.63525677    -0.23400
C193        C  0.93676973  0.88509849  0.61852357    -0.23600
C194        C  0.44958769  0.92165689  0.61721020    -0.00600
H195        H  0.91785401  0.85996475  0.64326298     0.13200
H196        H  0.94152597  0.85737625  0.61117817     0.13200
N197        N  0.42552385  0.98316937  0.63011213    -0.03100
C198        C  0.43463043  0.01451583  0.64038680    -0.00500
C199        C  0.43389771  0.05068949  0.63047501    -0.23400
C200        C  0.42196817  0.04179072  0.61420204    -0.23600
C201        C  0.41621455  0.00035575  0.61445393    -0.00600
H202        H  0.43632151  0.08143511  0.63539958     0.13200
H203        H  0.41486560  0.06383800  0.60406147     0.13200
In204      In  0.19090369  0.93416042  0.50675821     1.36900
C205        C  0.24096666  0.93124528  0.52959474     0.78000
O206        O  0.22862034  0.94193309  0.48526791    -0.60500
O207        O  0.19832163  0.99421327  0.49202216    -0.51400
C208        C  0.16345471  0.88335231  0.48430574     0.70700
O209        O  0.18922247  0.87304827  0.49307682    -0.46200
C210        C  0.13740999  0.94251684  0.52790801     0.75400
O211        O  0.22849922  0.89885156  0.52382938    -0.58100
O212        O  0.14956329  0.97286352  0.51965045    -0.48200
O213        O  0.22705271  0.96406702  0.52421462    -0.54500
C214        C  0.22189919  0.97948109  0.48247363     0.85500
O215        O  0.15251891  0.91947922  0.48692561    -0.56400
O216        O  0.15328385  0.90899510  0.52575209    -0.58900
C217        C  0.29243689  0.90995394  0.58789926    -0.17400
C218        C  0.31742353  0.91953785  0.59984100    -0.19600
C219        C  0.34514068  0.94255893  0.59439275     0.21100
C220        C  0.34808573  0.95518394  0.57661128    -0.02500
C221        C  0.32281287  0.94565498  0.56457583    -0.05600
C222        C  0.29464168  0.92326985  0.57028207     0.21300
C223        C  0.32508975  0.95999418  0.54700676     0.19500
C224        C  0.35317722  0.98210661  0.54142949    -0.17100
C225        C  0.37823481  0.99135664  0.55331195    -0.19300
C226        C  0.37555736  0.97883259  0.57099400     0.21000
C227        C  0.39899798  0.99121815  0.58329334    -0.32300
C228        C  0.39545865  0.98030576  0.60115454     0.01700
C229        C  0.36909660  0.95482987  0.60653214    -0.23600
C230        C  0.26864368  0.91605164  0.55844358    -0.28200
C231        C  0.27024201  0.93195369  0.54119104     0.07400
C232        C  0.29865485  0.95335500  0.53550651    -0.26900
H233        H  0.27102232  0.89282989  0.59253793     0.12100
H234        H  0.31471299  0.90963303  0.61343739     0.13200
H235        H  0.35540458  0.99305109  0.52794892     0.12300
H236        H  0.39928425  0.00927911  0.54876893     0.11500
H237        H  0.41939333  0.01065782  0.57910421     0.16900
H238        H  0.36606184  0.94672922  0.62032897     0.12800
H239        H  0.24646459  0.90008473  0.56287140     0.15700
H240        H  0.29970320  0.96578277  0.52219968     0.15500
C241        C  0.07142583  0.00184862  0.57744790    -0.17400
C242        C  0.04486617  0.99904259  0.58967393    -0.19600
C243        C  0.02082098  0.96855730  0.58819385     0.21100
C244        C  0.02333731  0.94104035  0.57408072    -0.02500
C245        C  0.05058283  0.94324557  0.56198118    -0.05600
C246        C  0.07478629  0.97381795  0.56366950     0.21300
C247        C  0.05409027  0.91412949  0.54850343     0.19500
C248        C  0.02970131  0.88421019  0.54677887    -0.17100
C249        C  0.00237188  0.88260713  0.55851325    -0.19300
C250        C  0.99921855  0.91048842  0.57235149     0.21000
C251        C  0.97304178  0.90734421  0.58482333    -0.32300
C252        C  0.97124552  0.93315654  0.59951052     0.01700
C253        C  0.99508156  0.96414468  0.60091639    -0.23600
C254        C  0.10237203  0.97499015  0.55187828    -0.28200
C255        C  0.10665612  0.94490716  0.53895860     0.07400
C256        C  0.08233541  0.91481011  0.53727100    -0.26900
H257        H  0.08975783  0.02546241  0.57899290     0.12100
H258        H  0.04331321  0.02050114  0.60039516     0.13200
H259        H  0.03194011  0.86175559  0.53644614     0.12300
H260        H  0.98409606  0.85892087  0.55700453     0.11500
H261        H  0.95475947  0.88364410  0.58340636     0.16900
H262        H  0.50457521  0.96689442  0.62242842     0.12800
H263        H  0.12129399  0.99798289  0.55326692     0.15700
H264        H  0.08559367  0.89171384  0.52723282     0.15500
C265        C  0.16777835  0.76911028  0.44188086    -0.17400
C266        C  0.15319352  0.74820599  0.42807919    -0.19600
C267        C  0.12004352  0.75749422  0.42307220     0.21100
C268        C  0.10095250  0.78694812  0.43256613    -0.02500
C269        C  0.11582006  0.80845512  0.44634058    -0.05600
C270        C  0.14957144  0.79993414  0.45085730     0.21300
C271        C  0.09737824  0.83983072  0.45500842     0.19500
C272        C  0.06382990  0.84801134  0.45048679    -0.17100
C273        C  0.04909418  0.82664444  0.43691749    -0.19300
C274        C  0.06769552  0.79682989  0.42757704     0.21000
C275        C  0.05458851  0.77933718  0.41246837    -0.32300
C276        C  0.07461782  0.75309790  0.40195698     0.01700
C277        C  0.10662053  0.74045024  0.40790608    -0.23600
C278        C  0.16481020  0.82336298  0.46380041    -0.28200
C279        C  0.14694133  0.85588294  0.47190206     0.07400
C280        C  0.11310195  0.86342626  0.46761117    -0.26900
H281        H  0.19364584  0.76201143  0.44518272     0.12100
H282        H  0.16822113  0.72562065  0.42095865     0.13200
H283        H  0.04923105  0.87176887  0.45713092     0.12300
H284        H  0.02352392  0.83452623  0.43329960     0.11500
H285        H  0.03015051  0.78955673  0.40780949     0.16900
H286        H  0.12246878  0.72081017  0.39972624     0.12800
H287        H  0.19089207  0.81742800  0.46703883     0.15700
H288        H  0.09907008  0.88816010  0.47394615     0.15500
C289        C  0.16131069  0.69325882  0.28710496    -0.17400
C290        C  0.13388773  0.70198057  0.29825103    -0.19600
C291        C  0.13823703  0.70459999  0.31646006     0.21100
C292        C  0.17034418  0.69671665  0.32359371    -0.02500
C293        C  0.19818508  0.68908046  0.31230603    -0.05600
C294        C  0.19365002  0.68780020  0.29395562     0.21300
C295        C  0.23074957  0.68497280  0.31930466     0.19500
C296        C  0.23487675  0.68566649  0.33758985    -0.17100
C297        C  0.20714814  0.69202160  0.34881952    -0.19300
C298        C  0.17494346  0.69857839  0.34192089     0.21000
C299        C  0.14758624  0.70901763  0.35291696    -0.32300
C300        C  0.11620665  0.71952949  0.34574136     0.01700
C301        C  0.11146726  0.71677473  0.32757465    -0.23600
C302        C  0.22171582  0.68358508  0.28271493    -0.28200
C303        C  0.25425577  0.68288261  0.28954486     0.07400
C304        C  0.25865771  0.68251741  0.30784059    -0.26900
H305        H  0.15741742  0.69230698  0.27305870     0.12100
H306        H  0.10937203  0.70753857  0.29258361     0.13200
H307        H  0.25965509  0.68222648  0.34318714     0.12300
H308        H  0.21106776  0.69328141  0.36286283     0.11500
H309        H  0.15116944  0.71165018  0.36695552     0.16900
H310        H  0.08720780  0.72506329  0.32210834     0.12800
H311        H  0.21838545  0.68433699  0.26859596     0.15700
H312        H  0.28382685  0.68189956  0.31308846     0.15500
C313        C  0.48671058  0.63121131  0.29520266    -0.17400
C314        C  0.51244688  0.62489075  0.30734654    -0.19600
C315        C  0.51497459  0.65064087  0.32186101     0.21100
C316        C  0.49173205  0.68364417  0.32393242    -0.02500
C317        C  0.46607423  0.69047817  0.31151036    -0.05600
C318        C  0.46327459  0.66372584  0.29724241     0.21300
C319        C  0.44276773  0.72347540  0.31360960     0.19500
C320        C  0.44539333  0.74930268  0.32808085    -0.17100
C321        C  0.47039773  0.74202931  0.34055726    -0.19300
C322        C  0.49352538  0.70913922  0.33866563     0.21000
C323        C  0.51765309  0.70054043  0.35155161    -0.32300
C324        C  0.04164308  0.67022948  0.34393076     0.01700
C325        C  0.03980098  0.64635952  0.32868008    -0.23600
C326        C  0.43669253  0.66943666  0.28548816    -0.28200
C327        C  0.41318493  0.70198609  0.28760317     0.07400
C328        C  0.41677240  0.72941345  0.30146777    -0.26900
H329        H  0.48496894  0.61046079  0.28429471     0.12100
H330        H  0.02819125  0.60255302  0.29982198     0.13200
H331        H  0.42772560  0.77471683  0.32992400     0.12300
H332        H  0.47147502  0.76197075  0.35178694     0.11500
H333        H  0.51740714  0.71881188  0.36331273     0.16900
H334        H  0.05667815  0.62011433  0.32695404     0.12800
H335        H  0.43412187  0.64834595  0.27474298     0.15700
H336        H  0.39857725  0.75434837  0.30320051     0.15500
C337        C  0.36456201  0.54565987  0.18872594    -0.17400
C338        C  0.38175950  0.52405669  0.17545821    -0.19600
C339        C  0.41448668  0.53462305  0.17038433     0.21100
C340        C  0.43064395  0.56595543  0.17931453    -0.02500
C341        C  0.41304186  0.58835302  0.19241001    -0.05600
C342        C  0.37965803  0.57852866  0.19698715     0.21300
C343        C  0.42835604  0.62176339  0.20033533     0.19500
C344        C  0.46159435  0.63113475  0.19584513    -0.17100
C345        C  0.47913719  0.60868642  0.18301645    -0.19300
C346        C  0.46358985  0.57677185  0.17435651     0.21000
C347        C  0.47927173  0.55805429  0.15982686    -0.32300
C348        C  0.46173627  0.53041897  0.14961024     0.01700
C349        C  0.43014781  0.51704745  0.15557109    -0.23600
C350        C  0.36174246  0.60247884  0.20935849    -0.28200
C351        C  0.37655657  0.63676579  0.21672616     0.07400
C352        C  0.40992761  0.64589233  0.21228416    -0.26900
H353        H  0.33906318  0.53751267  0.19212352     0.12100
H354        H  0.36906340  0.49990420  0.16878352     0.13200
H355        H  0.47376817  0.65649929  0.20195654     0.12300
H356        H  0.50439567  0.61736100  0.17937549     0.11500
H357        H  0.50348327  0.56860150  0.15520049     0.16900
H358        H  0.41616674  0.49628681  0.14763820     0.12800
H359        H  0.33607885  0.59522051  0.21286421     0.15700
H360        H  0.42165284  0.67186106  0.21820342     0.15500
C361        C  0.40972390  0.48268658  0.04552573    -0.17400
C362        C  0.38340843  0.47266995  0.03446989    -0.19600
C363        C  0.35129686  0.46495780  0.04145459     0.21100
C364        C  0.34601467  0.46599674  0.05984739    -0.02500
C365        C  0.37275129  0.47516100  0.07102627    -0.05600
C366        C  0.40455833  0.48457384  0.06379779     0.21300
C367        C  0.36728992  0.47635121  0.08939390     0.19500
C368        C  0.33533907  0.46832568  0.09642929    -0.17100
C369        C  0.30869846  0.46032293  0.08533914    -0.19300
C370        C  0.31368533  0.45952183  0.06704725     0.21000
C371        C  0.28660929  0.45416998  0.05581166    -0.32300
C372        C  0.29145533  0.45418216  0.03748710     0.01700
C373        C  0.32402657  0.45818982  0.03038025    -0.23600
C374        C  0.43019458  0.49689923  0.07493826    -0.28200
C375        C  0.42466210  0.49824423  0.09320499     0.07400
C376        C  0.39352244  0.48697108  0.10036835    -0.26900
H377        H  0.43401947  0.48949113  0.03975760     0.12100
H378        H  0.38795748  0.47203134  0.02039627     0.13200
H379        H  0.33074820  0.46924609  0.11049192     0.12300
H380        H  0.28404905  0.45531686  0.09106501     0.11500
H381        H  0.26146442  0.45138671  0.06127925     0.16900
H382        H  0.32767679  0.45903617  0.01622507     0.12800
H383        H  0.45426073  0.50580070  0.06946065     0.15700
H384        H  0.38922275  0.48862373  0.11445456     0.15500
C385        C  0.05350467  0.39269764  0.04202042    -0.17400
C386        C  0.02557708  0.38734721  0.05318243    -0.19600
C387        C  0.02075124  0.41180086  0.06810041     0.21100
C388        C  0.04388973  0.44261289  0.07152078    -0.02500
C389        C  0.07165126  0.44869422  0.06002198    -0.05600
C390        C  0.07681220  0.42313440  0.04537383     0.21300
C391        C  0.09454288  0.47990824  0.06337331     0.19500
C392        C  0.08964043  0.50442283  0.07823485    -0.17100
C393        C  0.06270141  0.49765296  0.08985087    -0.19300
C394        C  0.03981264  0.46670391  0.08667412     0.21000
C395        C  0.01366054  0.45858035  0.09871096    -0.32300
C396        C  0.99052402  0.42766305  0.09560302     0.01700
C397        C  0.99385835  0.40514432  0.07993671    -0.23600
C398        C  0.10528234  0.42835113  0.03445289    -0.28200
C399        C  0.12793554  0.45979533  0.03761378     0.07400
C400        C  0.12215113  0.48575327  0.05195520    -0.26900
H401        H  0.05692411  0.37293191  0.03078483     0.12100
H402        H  0.00809820  0.36349185  0.05033419     0.13200
H403        H  0.10696405  0.52845222  0.08103193     0.12300
H404        H  0.05986808  0.51654027  0.10140100     0.11500
H405        H  0.52196140  0.49373329  0.10759393     0.16900
H406        H  0.97623041  0.38140948  0.07720339     0.12800
H407        H  0.10959662  0.40838386  0.02333590     0.15700
H408        H  0.13971294  0.50972412  0.05450331     0.15500
C409        C  0.13789570  0.97841385  0.03926584    -0.17400
C410        C  0.16344293  0.98685677  0.05102494    -0.19600
C411        C  0.15856322  0.98086375  0.06919066     0.21100
C412        C  0.12812137  0.96455561  0.07551911    -0.02500
C413        C  0.10205046  0.95678615  0.06366781    -0.05600
C414        C  0.10685173  0.96423965  0.04546936     0.21300
C415        C  0.07059904  0.94379620  0.07013267     0.19500
C416        C  0.06621424  0.93618033  0.08823203    -0.17100
C417        C  0.09225599  0.94304196  0.09992306    -0.19300
C418        C  0.12299743  0.95826248  0.09376768     0.21000
C419        C  0.14778235  0.96984720  0.10557945    -0.32300
C420        C  0.17692212  0.98919915  0.09939890     0.01700
C421        C  0.18267431  0.99327608  0.08118014    -0.23600
C422        C  0.07999032  0.95956779  0.03393462    -0.28200
C423        C  0.04809289  0.94921814  0.04046359     0.07400
C424        C  0.04366962  0.94073187  0.05851314    -0.26900
H425        H  0.14203674  0.98429933  0.02535744     0.12100
H426        H  0.18671977  0.99914203  0.04593689     0.13200
H427        H  0.04233863  0.92587458  0.09340890     0.12300
H428        H  0.08789156  0.93791315  0.11386962     0.11500
H429        H  0.14312197  0.96706765  0.11962490     0.16900
H430        H  0.20516243  0.00811119  0.07640878     0.12800
H431        H  0.08319462  0.96700403  0.02007746     0.15700
H432        H  0.52312100  0.92762903  0.06335970     0.15500
C433        C  0.31125637  0.89310726  0.19666349    -0.17400
C434        C  0.29622480  0.91921918  0.18409731    -0.19600
C435        C  0.26138296  0.91910476  0.18158202     0.21100
C436        C  0.24129879  0.89404161  0.19251314    -0.02500
C437        C  0.25652160  0.86731870  0.20506688    -0.05600
C438        C  0.29176171  0.86625356  0.20690176     0.21300
C439        C  0.23666422  0.83995640  0.21500681     0.19500
C440        C  0.20166516  0.84119975  0.21307884    -0.17100
C441        C  0.18661265  0.86771343  0.20070295    -0.19300
C442        C  0.20629171  0.89329987  0.18997582     0.21000
C443        C  0.19212867  0.91469735  0.17561067    -0.32300
C444        C  0.21279509  0.93486011  0.16323760     0.01700
C445        C  0.24681727  0.94018095  0.16721533    -0.23600
C446        C  0.30695240  0.83710658  0.21831543    -0.28200
C447        C  0.28740811  0.80833138  0.22754234     0.07400
C448        C  0.25222422  0.81059671  0.22609650    -0.26900
H449        H  0.33831102  0.89287171  0.19792533     0.12100
H450        H  0.31204125  0.93829196  0.17584519     0.13200
H451        H  0.18602565  0.82065794  0.22072001     0.12300
H452        H  0.15969311  0.86681343  0.19896525     0.11500
H453        H  0.16592528  0.91054326  0.17258953     0.16900
H454        H  0.26294456  0.95567578  0.15776861     0.12800
H455        H  0.33406675  0.83544966  0.21932295     0.15700
H456        H  0.23697787  0.78872633  0.23326597     0.15500
C457        C  0.31412758  0.90205038  0.05133366    -0.17400
C458        C  0.28748246  0.89736851  0.06328441    -0.19600
C459        C  0.28320387  0.92413034  0.07744691     0.21100
C460        C  0.30575924  0.95627899  0.07950405    -0.02500
C461        C  0.33243232  0.96146052  0.06722522    -0.05600
C462        C  0.33673517  0.93390371  0.05320250     0.21300
C463        C  0.35496566  0.99380430  0.06908224     0.19500
C464        C  0.35070104  0.02036684  0.08336498    -0.17100
C465        C  0.32458688  0.01478392  0.09571408    -0.19300
C466        C  0.30194009  0.98279072  0.09392647     0.21000
C467        C  0.27608520  0.97616115  0.10647006    -0.32300
C468        C  0.25372363  0.94365720  0.10460684     0.01700
C469        C  0.25715751  0.91856137  0.08976479    -0.23600
C470        C  0.36372552  0.93831470  0.04135665    -0.28200
C471        C  0.38624027  0.97044849  0.04298902     0.07400
C472        C  0.38150546  0.99851162  0.05675963    -0.26900
H473        H  0.31708163  0.88068147  0.04062951     0.12100
H474        H  0.27043684  0.87242617  0.06156962     0.13200
H475        H  0.36778698  0.04528540  0.08508978     0.12300
H476        H  0.32215265  0.03545154  0.10669257     0.11500
H477        H  0.27410298  0.99541130  0.11792965     0.16900
H478        H  0.23994941  0.89387772  0.08792888     0.12800
H479        H  0.36718073  0.91671507  0.03075312     0.15700
H480        H  0.39901892  0.02312191  0.05818016     0.15500
C481        C  0.02237605  0.91803513  0.68018681    -0.17400
C482        C  0.03779697  0.89427704  0.69345003    -0.19600
C483        C  0.01857528  0.86957545  0.70482121     0.21100
C484        C  0.98323512  0.87118471  0.70358932    -0.02500
C485        C  0.96763728  0.89538433  0.69026057    -0.05600
C486        C  0.98742748  0.91761172  0.67807381     0.21300
C487        C  0.42887550  0.86708530  0.68785212     0.19500
C488        C  0.40962398  0.83978512  0.69798352    -0.17100
C489        C  0.42483046  0.81400226  0.71057410    -0.19300
C490        C  0.96359356  0.84635709  0.71484110     0.21000
C491        C  0.97941479  0.81841152  0.72648392    -0.32300
C492        C  0.01467447  0.81459615  0.72698939     0.01700
C493        C  0.03407717  0.84154805  0.71664020    -0.23600
C494        C  0.97239366  0.93528911  0.66303213    -0.28200
C495        C  0.43507655  0.91156292  0.66191894     0.07400
C496        C  0.41478142  0.88844380  0.67344838    -0.26900
H497        H  0.03796549  0.93516524  0.67104886     0.12100
H498        H  0.06492333  0.89383299  0.69430623     0.13200
H499        H  0.38301188  0.83719700  0.69568334     0.12300
H500        H  0.40955657  0.79228918  0.71781986     0.11500
H501        H  0.46048144  0.76413923  0.73168138     0.16900
H502        H  0.06123535  0.83910100  0.71704224     0.12800
H503        H  0.98816771  0.94848105  0.65278847     0.15700
H504        H  0.38905661  0.88292509  0.66989974     0.15500
C505        C  0.35791879  0.93777021  0.93411781    -0.17400
C506        C  0.34074335  0.91910934  0.92064603    -0.19600
C507        C  0.34511260  0.87696278  0.91769038     0.21100
C508        C  0.36662163  0.85316713  0.92858547    -0.02500
C509        C  0.38410714  0.87211716  0.94221172    -0.05600
C510        C  0.37978255  0.91464210  0.94487570     0.21300
C511        C  0.40631435  0.84877661  0.95292357     0.19500
C512        C  0.41040271  0.80646840  0.94998925    -0.17100
C513        C  0.39319107  0.78770302  0.93641176    -0.19300
C514        C  0.37145918  0.81082423  0.92550091     0.21000
C515        C  0.35576300  0.79298823  0.91106551    -0.32300
C516        C  0.33549482  0.81715160  0.89970909     0.01700
C517        C  0.32953368  0.85874468  0.90349695    -0.23600
C518        C  0.39752955  0.93353833  0.95814449    -0.28200
C519        C  0.41981636  0.91082357  0.96891082     0.07400
C520        C  0.42410292  0.86829061  0.96623448    -0.26900
H521        H  0.35434021  0.97047189  0.93601151     0.12100
H522        H  0.32441173  0.93779548  0.91235497     0.13200
H523        H  0.42723088  0.78792896  0.95807886     0.12300
H524        H  0.39726194  0.75517021  0.93428300     0.11500
H525        H  0.36113855  0.76113038  0.90797104     0.16900
H526        H  0.31421777  0.87753203  0.89470751     0.12800
H527        H  0.39399622  0.96625873  0.96004546     0.15700
H528        H  0.44115625  0.85046784  0.97448359     0.15500
C529        C  0.35869255  0.68709030  0.80781297    -0.17400
C530        C  0.38570350  0.67792521  0.79640399    -0.19600
C531        C  0.41889407  0.67922253  0.80230139     0.21100
C532        C  0.42477567  0.68752236  0.82014033    -0.02500
C533        C  0.39744097  0.69544492  0.83179057    -0.05600
C534        C  0.36432619  0.69689852  0.82541549     0.21300
C535        C  0.40344551  0.70502375  0.84948005     0.19500
C536        C  0.43655484  0.70543645  0.85549393    -0.17100
C537        C  0.46359098  0.69856894  0.84387629    -0.19300
C538        C  0.45799359  0.69040489  0.82611447     0.21000
C539        C  0.98719200  0.68888317  0.80910574    -0.32300
C540        C  0.98200594  0.68931776  0.79081915     0.01700
C541        C  0.44625795  0.67458140  0.79050890    -0.23600
C542        C  0.33801430  0.71196139  0.83625404    -0.28200
C543        C  0.34448421  0.72503071  0.85339102     0.07400
C544        C  0.37664317  0.71804583  0.86037189    -0.26900
H545        H  0.33342836  0.68783625  0.80270466     0.12100
H546        H  0.38068476  0.67150974  0.78278035     0.13200
H547        H  0.44160358  0.71295575  0.86900505     0.12300
H548        H  0.98988039  0.68974363  0.84447558     0.11500
H549        H  0.01259143  0.68781883  0.81404012     0.16900
H550        H  0.44172636  0.66954699  0.77670484     0.12800
H551        H  0.31342624  0.71798803  0.83071468     0.15700
H552        H  0.38185508  0.72886005  0.87343879     0.15500
C553        C  0.29639822  0.57671560  0.93124079    -0.17400
C554        C  0.30496874  0.60783106  0.91922572    -0.19600
C555        C  0.30176504  0.64918832  0.92394154     0.21100
C556        C  0.29212742  0.65907641  0.94136155    -0.02500
C557        C  0.28265928  0.62770361  0.95336534    -0.05600
C558        C  0.28399663  0.58644473  0.94808650     0.21300
C559        C  0.26967460  0.63786652  0.97018075     0.19500
C560        C  0.26902884  0.67903309  0.97535166    -0.17100
C561        C  0.27883254  0.71005532  0.96354742    -0.19300
C562        C  0.28907611  0.70049013  0.94631323     0.21000
C563        C  0.29256570  0.73150921  0.93346320    -0.32300
C564        C  0.29650517  0.72148183  0.91558367     0.01700
C565        C  0.30432383  0.68064952  0.91113728    -0.23600
C566        C  0.27123155  0.55588338  0.95934454    -0.28200
C567        C  0.25595581  0.56603494  0.97557376     0.07400
C568        C  0.25609462  0.60699841  0.98113184    -0.26900
H569        H  0.29791502  0.54511400  0.92705157     0.12100
H570        H  0.31261547  0.59959759  0.90598945     0.13200
H571        H  0.25969438  0.68741079  0.98828423     0.12300
H572        H  0.27657614  0.74174039  0.96759610     0.11500
H573        H  0.28690148  0.76311017  0.93692867     0.16900
H574        H  0.30751371  0.67273523  0.89740949     0.12800
H575        H  0.27156949  0.52434542  0.95503273     0.15700
H576        H  0.24501383  0.61493400  0.99376475     0.15500
C577        C  0.20490987  0.67549568  0.81243893    -0.17400
C578        C  0.22731242  0.68112140  0.82619214    -0.19600
C579        C  0.22918108  0.71935019  0.83433169     0.21100
C580        C  0.20933742  0.75271320  0.82795823    -0.02500
C581        C  0.18672936  0.74703390  0.81407140    -0.05600
C582        C  0.18395009  0.70800217  0.80654005     0.21300
C583        C  0.16582602  0.77998894  0.80829516     0.19500
C584        C  0.16846299  0.81855341  0.81600675    -0.17100
C585        C  0.19056662  0.82407357  0.82983506    -0.19300
C586        C  0.21059241  0.79117534  0.83613666     0.21000
C587        C  0.22996825  0.79533636  0.85123573    -0.32300
C588        C  0.24787637  0.76153480  0.85842705     0.01700
C589        C  0.24859863  0.72409230  0.84947463    -0.23600
C590        C  0.15946588  0.70188774  0.79373096    -0.28200
C591        C  0.13775510  0.73435086  0.78835989     0.07400
C592        C  0.14176470  0.77351347  0.79540008    -0.26900
H593        H  0.20334511  0.64538352  0.80672942     0.12100
H594        H  0.24242792  0.65519009  0.83083371     0.13200
H595        H  0.15269754  0.84422432  0.81168018     0.12300
H596        H  0.19128129  0.85381200  0.83594447     0.11500
H597        H  0.22892018  0.82399205  0.85828727     0.16900
H598        H  0.26174340  0.69773213  0.85520568     0.12800
H599        H  0.15675307  0.67165602  0.78827585     0.15700
H600        H  0.12528664  0.79874149  0.79130762     0.15500
C601        C  0.47108275  0.65012797  0.42514368    -0.17400
C602        C  0.45220806  0.62953975  0.43808937    -0.19600
C603        C  0.46823009  0.60586108  0.45123028     0.21100
C604        C  0.50370660  0.60493583  0.45183221    -0.02500
C605        C  0.02821272  0.62274888  0.43379128    -0.05600
C606        C  0.50634729  0.64744059  0.42509913     0.21300
C607        C  0.06336781  0.61638622  0.43255963     0.19500
C608        C  0.07965211  0.59108573  0.44501862    -0.17100
C609        C  0.06116147  0.57073406  0.45809514    -0.19300
C610        C  0.02605281  0.57524283  0.45891532     0.21000
C611        C  0.50156549  0.55682051  0.47645656    -0.32300
C612        C  0.46641369  0.55533482  0.47529233     0.01700
C613        C  0.44967824  0.58121922  0.46311091    -0.23600
C614        C  0.52537258  0.66279031  0.41084165    -0.28200
C615        C  0.06425264  0.65372157  0.40452344     0.07400
C616        C  0.08120179  0.63242021  0.41806302    -0.26900
H617        H  0.45806362  0.66678148  0.41475046     0.12100
H618        H  0.42504968  0.63092179  0.43743508     0.13200
H619        H  0.10659333  0.58586317  0.44427253     0.12300
H620        H  0.07425407  0.55039214  0.46723367     0.11500
H621        H  0.02016604  0.53061130  0.47973224     0.16900
H622        H  0.42259315  0.58022240  0.46213731     0.12800
H623        H  0.51255146  0.67618661  0.39957794     0.15700
H624        H  0.10760959  0.62442641  0.41629976     0.15500
C625        C  0.19702510  0.58857093  0.68265791    -0.17400
C626        C  0.18222474  0.61461475  0.69518779    -0.19600
C627        C  0.14840020  0.61055656  0.70020988     0.21100
C628        C  0.12954199  0.57923399  0.69285259    -0.02500
C629        C  0.14447175  0.55302439  0.68010648    -0.05600
C630        C  0.17823330  0.55813541  0.67482248     0.21300
C631        C  0.12515665  0.52310195  0.67204048     0.19500
C632        C  0.09149896  0.51859307  0.67729743    -0.17100
C633        C  0.07686247  0.54413159  0.69009901    -0.19300
C634        C  0.09550945  0.57487729  0.69783436     0.21000
C635        C  0.08065779  0.60166766  0.71025834    -0.32300
C636        C  0.09918875  0.63338920  0.71744533     0.01700
C637        C  0.13304003  0.63758615  0.71228811    -0.23600
C638        C  0.19178662  0.53501997  0.66085791    -0.28200
C639        C  0.17158080  0.50830603  0.65151141     0.07400
C640        C  0.13897053  0.50054313  0.65793647    -0.26900
H641        H  0.22294538  0.59303148  0.67872168     0.12100
H642        H  0.19712479  0.63837162  0.70076362     0.13200
H643        H  0.07624281  0.49590032  0.67121610     0.12300
H644        H  0.05071136  0.54030639  0.69371883     0.11500
H645        H  0.05453732  0.59835246  0.71408320     0.16900
H646        H  0.14756978  0.66177243  0.71782210     0.12800
H647        H  0.21685105  0.54130093  0.65592713     0.15700
H648        H  0.12303678  0.48042409  0.65075852     0.15500
C649        C  0.01515172  0.43738879  0.58482888    -0.17400
C650        C  0.04173196  0.44205035  0.59642739    -0.19600
C651        C  0.07357849  0.45309591  0.59006802     0.21100
C652        C  0.07892946  0.45819805  0.57178346    -0.02500
C653        C  0.05231729  0.45245837  0.56005131    -0.05600
C654        C  0.02004772  0.44296841  0.56664045     0.21300
C655        C  0.05773909  0.45759898  0.54178006     0.19500
C656        C  0.08962449  0.46831874  0.53539694    -0.17100
C657        C  0.11572056  0.47497673  0.54703788    -0.19300
C658        C  0.11054499  0.47046004  0.56524072     0.21000
C659        C  0.13598802  0.47948612  0.57703616    -0.32300
C660        C  0.13058329  0.47532127  0.59525309     0.01700
C661        C  0.09973957  0.46081530  0.60168096    -0.23600
C662        C  0.99313787  0.44050177  0.55496107    -0.28200
C663        C  0.99843512  0.44590433  0.53677272     0.07400
C664        C  0.03092660  0.45336732  0.53024827    -0.26900
H665        H  0.99060997  0.42986188  0.59012226     0.12100
H666        H  0.03716029  0.43804730  0.61040718     0.13200
H667        H  0.09416766  0.47248352  0.52142195     0.12300
H668        H  0.13988338  0.48418768  0.54180040     0.11500
H669        H  0.15982214  0.49060922  0.57210139     0.16900
H670        H  0.09546232  0.45806625  0.61574945     0.12800
H671        H  0.47141829  0.42511655  0.56108308     0.15700
H672        H  0.03490150  0.45827299  0.51625188     0.15500
C673        C  0.28356281  0.48329007  0.59195026    -0.17400
C674        C  0.30930771  0.49182593  0.57980255    -0.19600
C675        C  0.30869107  0.47606702  0.56274592     0.21100
C676        C  0.28156370  0.45182465  0.55784535    -0.02500
C677        C  0.25557213  0.44318008  0.57011918    -0.05600
C678        C  0.25672552  0.45879443  0.58727919     0.21300
C679        C  0.22892714  0.41804799  0.56535488     0.19500
C680        C  0.22816638  0.40250244  0.54826917    -0.17100
C681        C  0.25389677  0.41101526  0.53612508    -0.19300
C682        C  0.28083464  0.43530632  0.54083817     0.21000
C683        C  0.30752482  0.44230195  0.52901416    -0.32300
C684        C  0.33509114  0.46553743  0.53391746     0.01700
C685        C  0.33517598  0.48303987  0.55069762    -0.23600
C686        C  0.23158851  0.44868005  0.59962110    -0.28200
C687        C  0.20537757  0.42285857  0.59512827     0.07400
C688        C  0.20403698  0.40804605  0.57788441    -0.26900
H689        H  0.28485598  0.49545740  0.60508607     0.12100
H690        H  0.32993767  0.51037399  0.58382810     0.13200
H691        H  0.20788371  0.38323460  0.54436440     0.12300
H692        H  0.25295963  0.39812338  0.52310943     0.11500
H693        H  0.30731948  0.42856106  0.51613312     0.16900
H694        H  0.35650846  0.50051723  0.55464685     0.12800
H695        H  0.23321377  0.45954058  0.61295741     0.15700
H696        H  0.18386032  0.38824952  0.57430155     0.15500
C697        C  0.23343269  0.12065150  0.18704853    -0.17400
C698        C  0.21898281  0.14460101  0.20041219    -0.19600
C699        C  0.18639594  0.13705783  0.20671469     0.21100
C700        C  0.16872908  0.10390798  0.19999714    -0.02500
C701        C  0.18332804  0.07971753  0.18643922    -0.05600
C702        C  0.21553783  0.08875428  0.17970074     0.21300
C703        C  0.16490547  0.04817244  0.17892037     0.19500
C704        C  0.13278423  0.03970385  0.18569523    -0.17100
C705        C  0.11849861  0.06331021  0.19927008    -0.19300
C706        C  0.13593894  0.09607627  0.20626235     0.21000
C707        C  0.12080622  0.12195023  0.21894915    -0.32300
C708        C  0.13780981  0.15605594  0.22518755     0.01700
C709        C  0.17082025  0.16289290  0.21918469    -0.23600
C710        C  0.22821528  0.06797393  0.16487791    -0.28200
C711        C  0.20876995  0.03913420  0.15631054     0.07400
C712        C  0.17781420  0.02793798  0.16393689    -0.26900
H713        H  0.25820107  0.12797781  0.18205312     0.12100
H714        H  0.23300634  0.16974158  0.20551066     0.13200
H715        H  0.11828004  0.01553291  0.18014609     0.12300
H716        H  0.09338114  0.05665796  0.20395528     0.11500
H717        H  0.09540229  0.11637792  0.22351069     0.16900
H718        H  0.18425761  0.18883124  0.22401952     0.12800
H719        H  0.25175889  0.07724126  0.15889761     0.15700
H720        H  0.16224816  0.00657152  0.15719504     0.15500
C721        C  0.03160528  0.42484143  0.18039025    -0.17400
C722        C  0.04820344  0.40665331  0.19475831    -0.19600
C723        C  0.03296776  0.37561682  0.20482806     0.21100
C724        C  0.99983511  0.36461239  0.20097746    -0.02500
C725        C  0.98279371  0.38365756  0.18670074    -0.05600
C726        C  0.99925245  0.41279882  0.17596710     0.21300
C727        C  0.46330988  0.39276018  0.18097613     0.19500
C728        C  0.44539425  0.36679511  0.19238170    -0.17100
C729        C  0.46172012  0.34573737  0.20607908    -0.19300
C730        C  0.98443502  0.33289583  0.21072198     0.21000
C731        C  0.00287680  0.31088607  0.22350348    -0.32300
C732        C  0.03642411  0.32037514  0.22688489     0.01700
C733        C  0.05086113  0.35391525  0.21801300    -0.23600
C734        C  0.98428961  0.42673020  0.16025202    -0.28200
C735        C  0.46769185  0.43009484  0.15302905     0.07400
C736        C  0.44847050  0.40866997  0.16561823    -0.26900
H737        H  0.04455014  0.44739866  0.17237783     0.12100
H738        H  0.07350726  0.41571845  0.19755488     0.13200
H739        H  0.41908775  0.36128519  0.19021728     0.12300
H740        H  0.44762588  0.32458737  0.21425896     0.11500
H741        H  0.50003214  0.30320623  0.22871152     0.16900
H742        H  0.07665385  0.36140572  0.22057243     0.12800
H743        H  0.99858170  0.44567601  0.15118480     0.15700
H744        H  0.42313457  0.40027269  0.16244070     0.15500
C745        C  0.36088903  0.32665542  0.41081541    -0.17400
C746        C  0.37086533  0.35723279  0.42220948    -0.19600
C747        C  0.37598334  0.34827975  0.44009556     0.21100
C748        C  0.36961390  0.30853275  0.44672152    -0.02500
C749        C  0.35894798  0.27783551  0.43526427    -0.05600
C750        C  0.35552378  0.28664065  0.41712372     0.21300
C751        C  0.35369702  0.23774071  0.44177322     0.19500
C752        C  0.35782442  0.22908910  0.45976558    -0.17100
C753        C  0.36853314  0.25941193  0.47109122    -0.19300
C754        C  0.37512099  0.29902006  0.46463976     0.21000
C755        C  0.38761710  0.32904894  0.47570524    -0.32300
C756        C  0.39427915  0.36866657  0.46914734     0.01700
C757        C  0.38795811  0.37814442  0.45137562    -0.23600
C758        C  0.34981518  0.25460101  0.40543171    -0.28200
C759        C  0.34840368  0.21385579  0.41166520     0.07400
C760        C  0.34744853  0.20626722  0.42995999    -0.26900
H761        H  0.35834515  0.33402570  0.39695546     0.12100
H762        H  0.37546612  0.38764702  0.41692383     0.13200
H763        H  0.35392328  0.19841041  0.46497988     0.12300
H764        H  0.37235259  0.25163691  0.48482115     0.11500
H765        H  0.39193697  0.32167754  0.48944158     0.16900
H766        H  0.39279786  0.40866886  0.44625449     0.12800
H767        H  0.35082802  0.26066512  0.39138038     0.15700
H768        H  0.34640971  0.17483655  0.43480923     0.15500
C769        C  0.41692615  0.25095346  0.32521991    -0.17400
C770        C  0.44061011  0.26024078  0.31202509    -0.19600
C771        C  0.46545422  0.23115158  0.30706004     0.21100
C772        C  0.46550429  0.19172361  0.31497114    -0.02500
C773        C  0.44159281  0.18234378  0.32827965    -0.05600
C774        C  0.41766045  0.21242071  0.33372129     0.21300
C775        C  0.44281515  0.14358597  0.33677355     0.19500
C776        C  0.46686379  0.11399958  0.33142194    -0.17100
C777        C  0.49035780  0.12318562  0.31818929    -0.19300
C778        C  0.49028754  0.16215654  0.31010544     0.21000
C779        C  0.01306688  0.17279556  0.30208987    -0.32300
C780        C  0.01552326  0.21276327  0.29508404     0.01700
C781        C  0.49080514  0.24109750  0.29473029    -0.23600
C782        C  0.39655640  0.20438199  0.34832469    -0.28200
C783        C  0.39953866  0.16690250  0.35763338     0.07400
C784        C  0.42152855  0.13600938  0.35123601    -0.26900
H785        H  0.39865040  0.27435527  0.32913904     0.12100
H786        H  0.43998867  0.29056825  0.30599431     0.13200
H787        H  0.46810351  0.08408561  0.33781514     0.12300
H788        H  0.50913187  0.10009094  0.31457691     0.11500
H789        H  0.03116039  0.14919154  0.29812284     0.16900
H790        H  0.99370000  0.27410709  0.29494126     0.12800
H791        H  0.38002135  0.22850252  0.35336868     0.15700
H792        H  0.42391017  0.10710775  0.35841329     0.15500
C793        C  0.24764952  0.11067031  0.45158881    -0.17400
C794        C  0.26242408  0.13158612  0.43733480    -0.19600
C795        C  0.28229405  0.11028953  0.42491482     0.21100
C796        C  0.28847077  0.06776027  0.42730472    -0.02500
C797        C  0.27361771  0.04668944  0.44169054    -0.05600
C798        C  0.25250727  0.06807517  0.45369625     0.21300
C799        C  0.27891590  0.00394781  0.44366513     0.19500
C800        C  0.29965656  0.98282505  0.43159856    -0.17100
C801        C  0.31410731  0.00358945  0.41729003    -0.19300
C802        C  0.30821412  0.04587839  0.41487640     0.21000
C803        C  0.32026833  0.06618177  0.39978262    -0.32300
C804        C  0.31260936  0.10798726  0.39679529     0.01700
C805        C  0.29453273  0.13020092  0.40967204    -0.23600
C806        C  0.23592668  0.04628064  0.46724703    -0.28200
C807        C  0.24038385  0.00344861  0.46892525     0.07400
C808        C  0.26257085  0.98278939  0.45732926    -0.26900
H809        H  0.23179443  0.12768743  0.46074793     0.12100
H810        H  0.25759073  0.16427396  0.43577517     0.13200
H811        H  0.30405152  0.94999842  0.43298742     0.12300
H812        H  0.32926521  0.98639411  0.40788601     0.11500
H813        H  0.33414603  0.04897805  0.38985514     0.16900
H814        H  0.28802915  0.16224580  0.40724400     0.12800
H815        H  0.21920897  0.06248279  0.47628062     0.15700
H816        H  0.26638979  0.94983396  0.45859841     0.15500
C817        C  0.21323957  0.24064330  0.35340359    -0.17400
C818        C  0.18632068  0.24925084  0.34218166    -0.19600
C819        C  0.19157977  0.25244246  0.32392079     0.21100
C820        C  0.22459014  0.24920726  0.31699349    -0.02500
C821        C  0.25174003  0.23985523  0.32831273    -0.05600
C822        C  0.24588151  0.23455641  0.34655504     0.21300
C823        C  0.28422217  0.23256585  0.32119836     0.19500
C824        C  0.28970914  0.23758070  0.30302163    -0.17100
C825        C  0.26300588  0.24776972  0.29186735    -0.19300
C826        C  0.23019366  0.25255516  0.29864868     0.21000
C827        C  0.20272818  0.25812238  0.28734075    -0.32300
C828        C  0.16967631  0.25842342  0.29408797     0.01700
C829        C  0.16433435  0.25647003  0.31240890    -0.23600
C830        C  0.27190719  0.21924334  0.35732282    -0.28200
C831        C  0.30304943  0.20691339  0.34988546     0.07400
C832        C  0.30975348  0.21649990  0.33207840    -0.26900
H833        H  0.20825125  0.23678550  0.36736181     0.12100
H834        H  0.16118668  0.25205114  0.34775076     0.13200
H835        H  0.31449985  0.23214978  0.29732775     0.12300
H836        H  0.26781050  0.25022536  0.27784752     0.11500
H837        H  0.20691455  0.25903736  0.27323175     0.16900
H838        H  0.13886426  0.25663817  0.31764947     0.12800
H839        H  0.26635054  0.21123544  0.37092927     0.15700
H840        H  0.33349124  0.20643546  0.32621569     0.15500
C841        C  0.44213226  0.09826198  0.69177253    -0.17400
C842        C  0.42442047  0.12173928  0.70417592    -0.19600
C843        C  0.39098062  0.11309724  0.70848946     0.21100
C844        C  0.37549363  0.07957454  0.70073695    -0.02500
C845        C  0.39333406  0.05602184  0.68807471    -0.05600
C846        C  0.42660698  0.06594570  0.68338406     0.21300
C847        C  0.37725297  0.02427481  0.67934856     0.19500
C848        C  0.34406461  0.01491942  0.68410197    -0.17100
C849        C  0.32657153  0.03777533  0.69691867    -0.19300
C850        C  0.34181051  0.07071476  0.70508150     0.21000
C851        C  0.32382884  0.09570241  0.71710454    -0.32300
C852        C  0.33896609  0.13000610  0.72433045     0.01700
C853        C  0.37257410  0.13814472  0.72007679    -0.23600
C854        C  0.44278433  0.04589054  0.66934622    -0.28200
C855        C  0.42557429  0.01765441  0.65929141     0.07400
C856        C  0.39362560  0.00498701  0.66505780    -0.26900
H857        H  0.46760636  0.10633058  0.68827998     0.12100
H858        H  0.43666649  0.14726985  0.71011511     0.13200
H859        H  0.33130483  0.99063110  0.67755457     0.12300
H860        H  0.30079224  0.03040729  0.70008582     0.11500
H861        H  0.29787878  0.08933849  0.72037474     0.16900
H862        H  0.38446564  0.16424342  0.72579432     0.12800
H863        H  0.46719521  0.05600284  0.66482024     0.15700
H864        H  0.37996220  0.98369328  0.65722109     0.15500
C865        C  0.24970478  0.39698303  0.67817971    -0.17400
C866        C  0.26455892  0.37598670  0.69239156    -0.19600
C867        C  0.24578648  0.34914183  0.70301639     0.21100
C868        C  0.21132288  0.34467805  0.69966476    -0.02500
C869        C  0.19626710  0.36604744  0.68534107    -0.05600
C870        C  0.21575036  0.39164632  0.67433084     0.21300
C871        C  0.16226113  0.35988227  0.68143798     0.19500
C872        C  0.14323248  0.33393533  0.69235163    -0.17100
C873        C  0.15808121  0.31293714  0.70655463    -0.19300
C874        C  0.19227168  0.31737965  0.71009082     0.21000
C875        C  0.20803032  0.29372592  0.72336215    -0.32300
C876        C  0.24268410  0.29674969  0.72634155     0.01700
C877        C  0.26116891  0.32542787  0.71642201    -0.23600
C878        C  0.20168533  0.40892962  0.65896685    -0.28200
C879        C  0.16864604  0.40005822  0.65420331     0.07400
C880        C  0.14860118  0.37726453  0.66600214    -0.26900
H881        H  0.26506761  0.41648407  0.66987249     0.12100
H882        H  0.29101581  0.37990103  0.69477733     0.13200
H883        H  0.11708659  0.32887495  0.68957826     0.12300
H884        H  0.14301557  0.29227537  0.71447739     0.11500
H885        H  0.19351390  0.27187543  0.73097819     0.16900
H886        H  0.28785356  0.32797214  0.71859544     0.12800
H887        H  0.21756583  0.42572692  0.64983219     0.15700
H888        H  0.12332183  0.36983779  0.66229827     0.15500
C889        C  0.09122396  0.43580945  0.93409900    -0.17400
C890        C  0.07407025  0.41652573  0.92073799    -0.19600
C891        C  0.08090935  0.37513919  0.91697155     0.21100
C892        C  0.10432927  0.35250738  0.92722305    -0.02500
C893        C  0.12193819  0.37212416  0.94059584    -0.05600
C894        C  0.11568782  0.41412592  0.94385011     0.21300
C895        C  0.14655438  0.35006525  0.95029268     0.19500
C896        C  0.15240779  0.30823819  0.94696761    -0.17100
C897        C  0.13492932  0.28878179  0.93374390    -0.19300
C898        C  0.11132065  0.31081700  0.92356848     0.21000
C899        C  0.09608875  0.29265225  0.90916967    -0.32300
C900        C  0.07449573  0.31589464  0.89822591     0.01700
C901        C  0.06619457  0.35667758  0.90253169    -0.23600
C902        C  0.13448591  0.43392175  0.95651953    -0.28200
C903        C  0.15973134  0.41247556  0.96592871     0.07400
C904        C  0.16530228  0.37037918  0.96288188    -0.26900
H905        H  0.08591829  0.46800435  0.93652324     0.12100
H906        H  0.05601861  0.43426759  0.91306610     0.13200
H907        H  0.17101098  0.29072783  0.95437022     0.12300
H908        H  0.14051977  0.25673262  0.93117077     0.11500
H909        H  0.10304996  0.26144952  0.90566241     0.16900
H910        H  0.04976027  0.37468196  0.89400605     0.12800
H911        H  0.12970763  0.46626335  0.95890009     0.15700
H912        H  0.18437837  0.35348697  0.97021891     0.15500
C913        C  0.12546974  0.17515117  0.79576630    -0.17400
C914        C  0.09837104  0.18348404  0.80718275    -0.19600
C915        C  0.10385801  0.19185946  0.82493424     0.21100
C916        C  0.13677201  0.18884102  0.83154113    -0.02500
C917        C  0.16421161  0.18179801  0.81990959    -0.05600
C918        C  0.15851797  0.17592475  0.80185387     0.21300
C919        C  0.19734301  0.18418323  0.82607841     0.19500
C920        C  0.20272290  0.18964592  0.84407114    -0.17100
C921        C  0.17552135  0.19559885  0.85567498    -0.19300
C922        C  0.14255658  0.19695619  0.84939994     0.21000
C923        C  0.11587194  0.21100988  0.86013394    -0.32300
C924        C  0.08436081  0.22039028  0.85279959     0.01700
C925        C  0.07778331  0.20776804  0.83564069    -0.23600
C926        C  0.18586711  0.17416486  0.79001456    -0.28200
C927        C  0.21853573  0.18048096  0.79589904     0.07400
C928        C  0.22429650  0.18403924  0.81397987    -0.26900
H929        H  0.12066365  0.17043715  0.78197971     0.12100
H930        H  0.07322647  0.18528921  0.80193548     0.13200
H931        H  0.22799549  0.19104132  0.84905257     0.12300
H932        H  0.18038188  0.20166735  0.86935490     0.11500
H933        H  0.12105586  0.22118740  0.87330546     0.16900
H934        H  0.05362866  0.21539181  0.82990382     0.12800
H935        H  0.18145519  0.17163889  0.77605217     0.15700
H936        H  0.24959178  0.18858473  0.81851000     0.15500
C937        C  0.51662333  0.17981453  0.97534583    -0.17400
C938        C  0.52413744  0.21077119  0.96307044    -0.19600
C939        C  0.03661223  0.19809483  0.94503356     0.21100
C940        C  0.04041292  0.15654910  0.94034129    -0.02500
C941        C  0.53054183  0.12809739  0.95354771    -0.05600
C942        C  0.51880882  0.13842520  0.97057563     0.21300
C943        C  0.53337454  0.08657812  0.94869499     0.19500
C944        C  0.54441010  0.07676666  0.93160120    -0.17100
C945        C  0.05173723  0.10468859  0.91826390    -0.19300
C946        C  0.04792766  0.14618635  0.92271852     0.21000
C947        C  0.04793535  0.17720883  0.90963409    -0.32300
C948        C  0.03982964  0.21799409  0.91407706     0.01700
C949        C  0.03758657  0.22863454  0.93190471    -0.23600
C950        C  0.50801215  0.10738438  0.98223646    -0.28200
C951        C  0.50950735  0.06605144  0.97724491     0.07400
C952        C  0.52348414  0.05578495  0.96071151    -0.26900
H953        H  0.50807605  0.18830370  0.98840238     0.12100
H954        H  0.52101165  0.24253964  0.96689857     0.13200
H955        H  0.54700462  0.04502930  0.92768799     0.12300
H956        H  0.05773022  0.09611991  0.90485460     0.11500
H957        H  0.04965858  0.16888726  0.89589787     0.16900
H958        H  0.03156542  0.26019379  0.93530603     0.12800
H959        H  0.49777937  0.11541983  0.99504118     0.15700
H960        H  0.52485084  0.02394860  0.95680659     0.15500
C961        C  0.42932029  0.16811490  0.82091775    -0.17400
C962        C  0.45331906  0.17420671  0.83381417    -0.19600
C963        C  0.46161321  0.21402148  0.83863116     0.21100
C964        C  0.44621081  0.24807131  0.83000279    -0.02500
C965        C  0.42205273  0.24191008  0.81692797    -0.05600
C966        C  0.41323997  0.20173203  0.81255577     0.21300
C967        C  0.40585408  0.27594901  0.80870935     0.19500
C968        C  0.41456398  0.31577046  0.81331926    -0.17100
C969        C  0.43815314  0.32187552  0.82641940    -0.19300
C970        C  0.45367978  0.28826193  0.83504757     0.21000
C971        C  0.47484688  0.29403866  0.84935432    -0.32300
C972        C  0.48879920  0.26019331  0.85857418     0.01700
C973        C  0.48331788  0.22036679  0.85267141    -0.23600
C974        C  0.38787864  0.19588596  0.80026770    -0.28200
C975        C  0.37099351  0.22966694  0.79234056     0.07400
C976        C  0.38056685  0.26960349  0.79642130    -0.26900
H977        H  0.42288628  0.13705571  0.81770937     0.12100
H978        H  0.46478381  0.14773172  0.84034188     0.13200
H979        H  0.40250349  0.34225441  0.80709294     0.12300
H980        H  0.44367380  0.35292760  0.83009113     0.11500
H981        H  0.96908548  0.32211533  0.85826857     0.16900
H982        H  0.49344998  0.19426976  0.86004375     0.12800
H983        H  0.38076890  0.16498181  0.79716995     0.15700
H984        H  0.36781145  0.29579190  0.79033046     0.15500
N985        N  0.52881242  0.24813373  0.88381454    -0.03100
C986        C  0.52342600  0.24963777  0.90155277    -0.00500
C987        C  0.49299108  0.26942130  0.90529003    -0.23400
C988        C  0.97322446  0.26529627  0.88952723    -0.23600
C989        C  0.50043198  0.26549196  0.87673949    -0.00600
H990        H  0.97508442  0.25300109  0.91771510     0.13200
H991        H  0.94691896  0.27283142  0.88759511     0.13200
N992        N  0.56067480  0.25510088  0.87587461    -0.03100
C993        C  0.57386328  0.29295725  0.87777736    -0.00500
C994        C  0.58278662  0.31004025  0.86178953    -0.23400
C995        C  0.57691885  0.28113611  0.84954953    -0.23600
C996        C  0.56613353  0.24637055  0.85852034    -0.00600
H997        H  0.59510301  0.33885746  0.85945453     0.13200
H998        H  0.58625179  0.28248715  0.83610877     0.13200
In999      In  0.79364096  0.20811254  0.75747515     1.36900
C1000       C  0.84473292  0.22283656  0.77886267     0.78000
O1001       O  0.76615177  0.21662489  0.78334541    -0.60500
O1002       O  0.74902288  0.17052038  0.76666965    -0.51400
C1003       C  0.76390091  0.26419806  0.73586081     0.70700
O1004       O  0.79211410  0.26954074  0.74261643    -0.46200
C1005       C  0.82515864  0.15634040  0.73528446     0.75400
O1006       O  0.82551881  0.25095068  0.77279687    -0.58100
O1007       O  0.80094136  0.14526667  0.74499580    -0.48200
O1008       O  0.83727419  0.18718094  0.77425070    -0.54500
C1009       C  0.74501212  0.18922958  0.78097643     0.85500
O1010       O  0.75103414  0.23072232  0.74031940    -0.56400
O1011       O  0.83233299  0.19348511  0.73673401    -0.59700
N1012       N  0.81780438  0.17450266  0.37460327    -0.03100
C1013       C  0.80578061  0.13592980  0.37684946    -0.00500
C1014       C  0.79771076  0.11925359  0.36100775    -0.23400
C1015       C  0.80299873  0.14914737  0.34857427    -0.23600
C1016       C  0.81312185  0.18373135  0.35725782    -0.00600
H1017       H  0.78624453  0.09003344  0.35892063     0.13200
H1018       H  0.79422102  0.14816456  0.33518654     0.13200
N1019       N  0.84831562  0.18386651  0.38282565    -0.03100
C1020       C  0.85009422  0.18507295  0.40064386    -0.00500
C1021       C  0.87726838  0.16150408  0.40647948    -0.23400
C1022       C  0.89449686  0.14832873  0.39191567    -0.23600
C1023       C  0.87709028  0.16369599  0.37764490    -0.00600
H1024       H  0.88690726  0.16004628  0.41970870     0.13200
H1025       H  0.91927657  0.13396125  0.39180894     0.13200
In1026     In  0.59507372  0.24377046  0.25655840     1.36900
C1027       C  0.64159949  0.26385444  0.28009752     0.78000
O1028       O  0.54921208  0.25980646  0.27305097    -0.60500
O1029       O  0.56548437  0.19734218  0.27216888    -0.51400
C1030       C  0.56618115  0.29968909  0.23476886     0.70700
O1031       O  0.59011906  0.30843171  0.24456938    -0.46200
C1032       C  0.62506926  0.18483585  0.23648688     0.75400
O1033       O  0.64396237  0.27337801  0.26399970    -0.58100
O1034       O  0.59502591  0.18317037  0.24179558    -0.48200
O1035       O  0.61505436  0.24561444  0.28415050    -0.54500
C1036       C  0.54416553  0.22330825  0.27805484     0.85500
O1037       O  0.55815713  0.26269306  0.23573956    -0.56400
O1038       O  0.63961669  0.21621876  0.24155061    -0.59700
N1039       N  0.67808548  0.43635941  0.62327528    -0.03100
C1040       C  0.66643912  0.40802337  0.63503339    -0.00500
C1041       C  0.66579510  0.37014902  0.62699054    -0.23400
C1042       C  0.67954281  0.37455844  0.61049814    -0.23600
C1043       C  0.68760882  0.41524975  0.60861655    -0.00600
H1044       H  0.66103743  0.34092856  0.63338404     0.13200
H1045       H  0.68570803  0.34988814  0.60158089     0.13200
N1046       N  0.66615079  0.47769584  0.62233064    -0.03100
C1047       C  0.67674357  0.50842008  0.63254437    -0.00500
C1048       C  0.67516080  0.54504577  0.62296314    -0.23400
C1049       C  0.66146831  0.53695488  0.60696448    -0.23600
C1050       C  0.65551393  0.49559920  0.60710087    -0.00600
H1051       H  0.67838941  0.57548610  0.62806092     0.13200
H1052       H  0.65329612  0.55941169  0.59721077     0.13200
In1053     In  0.92282676  0.46480744  0.50067584     1.36900
C1054       C  0.86547714  0.47118981  0.51927596     0.78000
O1055       O  0.90250948  0.44717557  0.47436577    -0.60500
O1056       O  0.91883925  0.39977115  0.49191653    -0.51400
C1057       C  0.95315027  0.52425385  0.48209095     0.70700
O1058       O  0.92185311  0.52593041  0.48527137    -0.46200
C1059       C  0.96996630  0.44871906  0.52458341     0.75400
O1060       O  0.88474119  0.50129403  0.51728863    -0.58100
O1061       O  0.97162239  0.43491613  0.50918916    -0.48200
O1062       O  0.87533995  0.43926554  0.51147281    -0.54500
C1063       C  0.90525543  0.40911733  0.47745494     0.85500
O1064       O  0.96788590  0.49326855  0.48863964    -0.56400
O1065       O  0.94303850  0.46811575  0.52819023    -0.59700
N1066       N  0.79285509  0.76399166  0.87913518    -0.03100
C1067       C  0.78483798  0.76248883  0.89660031    -0.00500
C1068       C  0.75203260  0.77613367  0.89942578    -0.23400
C1069       C  0.73865679  0.78426916  0.88331080    -0.23600
C1070       C  0.76376760  0.77594526  0.87116315    -0.00600
H1071       H  0.73777283  0.77418020  0.91162810     0.13200
H1072       H  0.71245305  0.79089692  0.88063590     0.13200
N1073       N  0.82373641  0.77994209  0.87299430    -0.03100
C1074       C  0.83194981  0.81860325  0.87762178    -0.00500
C1075       C  0.84406575  0.84057909  0.86339756    -0.23400
C1076       C  0.84477816  0.81437617  0.84956509    -0.23600
C1077       C  0.83344637  0.77700700  0.85581101    -0.00600
H1078       H  0.85496479  0.87063661  0.86355687     0.13200
H1079       H  0.85736476  0.81999222  0.83707473     0.13200
In1080     In  0.55537311  0.69617517  0.75883540     1.36900
C1081       C  0.50733651  0.68295341  0.78324158     0.78000
O1082       O  0.59895519  0.67596344  0.77570529    -0.60500
O1083       O  0.58943315  0.73984573  0.77167839    -0.51400
C1084       C  0.58268765  0.64091574  0.73675745     0.70700
O1085       O  0.55940748  0.63171553  0.74742982    -0.46200
C1086       C  0.52670336  0.75494452  0.73833293     0.75400
O1087       O  0.50754900  0.66605824  0.76842095    -0.58100
O1088       O  0.55658400  0.75644240  0.74338097    -0.48200
O1089       O  0.53243189  0.70468186  0.78582504    -0.54500
C1090       C  0.60799136  0.71214304  0.77854007     0.85500
O1091       O  0.59094102  0.67780432  0.73726060    -0.56400
O1092       O  0.51180966  0.72346099  0.74366224    -0.59700
N1093       N  0.71725997  0.95854511  0.12868706    -0.03100
C1094       C  0.70394186  0.93190305  0.14062111    -0.00500
C1095       C  0.70150117  0.89376221  0.13294557    -0.23400
C1096       C  0.71594342  0.89620214  0.11652578    -0.23600
C1097       C  0.72620610  0.93603706  0.11432582    -0.00600
H1098       H  0.69527231  0.86532619  0.13961849     0.13200
H1099       H  0.72135283  0.87056401  0.10799328     0.13200
N1100       N  0.70786911  0.00075957  0.12746701    -0.03100
C1101       C  0.72051603  0.03054957  0.13758306    -0.00500
C1102       C  0.72301949  0.06628836  0.12750069    -0.23400
C1103       C  0.70937983  0.05912290  0.11139613    -0.23600
C1104       C  0.69934851  0.01903904  0.11192437    -0.00600
H1105       H  0.72902886  0.09632503  0.13223197     0.13200
H1106       H  0.70430619  0.08182091  0.10119055     0.13200
In1107     In  0.96804375  0.97438017  0.00755497     1.36900
C1108       C  0.01860291  0.95489918  0.02907938     0.78000
O1109       O  0.00371733  0.99471179  0.98639204    -0.60500
O1110       O  0.97619483  0.04074289  0.00035487    -0.51400
C1111       C  0.93503510  0.93777181  0.98227627     0.70700
O1112       O  0.95661956  0.91869345  0.99163802    -0.46200
C1113       C  0.91513634  0.97506387  0.02906205     0.75400
O1114       O  0.01534612  0.93739984  0.01450673    -0.58100
O1115       O  0.92958184  0.00777957  0.02443427    -0.48200
O1116       O  0.99533919  0.98015671  0.03286169    -0.54500
C1117       C  0.99741991  0.03244634  0.98829527     0.85500
O1118       O  0.93113688  0.97534024  0.98576259    -0.56400
O1119       O  0.92836348  0.94249339  0.02302452    -0.59700
N1120       N  0.95727684  0.43855929  0.12402095    -0.03100
C1121       C  0.94410616  0.41225608  0.13619228    -0.00500
C1122       C  0.45666428  0.38940525  0.12711948    -0.23400
C1123       C  0.46900787  0.39186400  0.11021246    -0.23600
C1124       C  0.96567291  0.41567127  0.10964359    -0.00600
H1125       H  0.45269373  0.36095754  0.13429205     0.13200
H1126       H  0.47492382  0.36611797  0.10181565     0.13200
N1127       N  0.94836118  0.48100699  0.12273489    -0.03100
C1128       C  0.96142281  0.51056468  0.13286677    -0.00500
C1129       C  0.96667313  0.54538926  0.12246223    -0.23400
C1130       C  0.95365279  0.53851065  0.10625196    -0.23600
C1131       C  0.94163327  0.49938893  0.10697715    -0.00600
H1132       H  0.97367515  0.57528267  0.12694941     0.13200
H1133       H  0.95020326  0.56101117  0.09578909     0.13200
In1134     In  0.71185390  0.48394277  0.99879449     1.36900
C1135       C  0.65806977  0.48496278  0.01950458     0.78000
O1136       O  0.67652284  0.47957860  0.97646409    -0.60500
O1137       O  0.70221388  0.42484473  0.98482607    -0.51400
C1138       C  0.74018802  0.54270999  0.97941888     0.70700
O1139       O  0.72044594  0.55071528  0.99215234    -0.46200
C1140       C  0.76163557  0.46611477  0.02087107     0.75400
O1141       O  0.67070610  0.51786165  0.01371158    -0.58100
O1142       O  0.75927790  0.44838437  0.00630929    -0.48200
O1143       O  0.67339942  0.45241482  0.01498695    -0.54500
C1144       C  0.68086060  0.44138575  0.97457262     0.85500
O1145       O  0.74528700  0.50498983  0.97680153    -0.56400
O1146       O  0.73825471  0.49151866  0.02422949    -0.59700
N1147       N  0.56823423  0.67878988  0.37893364    -0.03100
C1148       C  0.57693517  0.65313945  0.39236334    -0.00500
C1149       C  0.58213538  0.61401956  0.38575287    -0.23400
C1150       C  0.57287785  0.61512345  0.36842313    -0.23600
C1151       C  0.56314654  0.65517994  0.36467910    -0.00600
H1152       H  0.58565022  0.58608573  0.39345764     0.13200
H1153       H  0.06858908  0.58991459  0.35382237     0.13200
N1154       N  0.57715572  0.72056950  0.37762543    -0.03100
C1155       C  0.56790078  0.75084952  0.38890904    -0.00500
C1156       C  0.57000626  0.78828400  0.38007061    -0.23400
C1157       C  0.58266566  0.78078147  0.36346725    -0.23600
C1158       C  0.58745124  0.73893999  0.36242557    -0.00600
H1159       H  0.56806677  0.81827324  0.38597130     0.13200
H1160       H  0.59149533  0.80359541  0.35412841     0.13200
In1161     In  0.82403705  0.71100470  0.25417896     1.36900
C1162       C  0.87898499  0.70803798  0.27382131     0.78000
O1163       O  0.80026436  0.71366659  0.28135646    -0.60500
O1164       O  0.77441033  0.68234163  0.26178136    -0.51400
C1165       C  0.79798773  0.77688064  0.23700792     0.70700
O1166       O  0.82599416  0.77781228  0.24452044    -0.46200
C1167       C  0.84938295  0.66237944  0.22893134     0.75400
O1168       O  0.86617557  0.67663900  0.26744644    -0.58100
O1169       O  0.82595661  0.65108931  0.23915507    -0.48200
O1170       O  0.86297430  0.74131688  0.27062868    -0.54500
C1171       C  0.77428625  0.69482520  0.27739254     0.85500
O1172       O  0.78405635  0.74278543  0.23829641    -0.56400
O1173       O  0.85803023  0.69886699  0.23104522    -0.59700
N1174       N  0.93950698  0.94985562  0.62781882    -0.03100
C1175       C  0.92730470  0.92628001  0.64124125    -0.00500
C1176       C  0.42536749  0.87650677  0.63453829    -0.23400
C1177       C  0.44072910  0.88125059  0.61839967    -0.23600
C1178       C  0.94740361  0.92405817  0.61437437    -0.00600
H1179       H  0.42003512  0.84709824  0.64062259     0.13200
H1180       H  0.44769103  0.85704712  0.60938210     0.13200
N1181       N  0.93082355  0.99197449  0.62513801    -0.03100
C1182       C  0.94052593  0.02292491  0.63551050    -0.00500
C1183       C  0.94345728  0.05827785  0.62526429    -0.23400
C1184       C  0.93257051  0.04960413  0.60871962    -0.23600
C1185       C  0.92377836  0.00892970  0.60911180    -0.00600
H1186       H  0.94734453  0.08891332  0.62999341     0.13200
H1187       H  0.92768922  0.07195570  0.59835360     0.13200
In1188     In  0.68472398  0.94365353  0.50829732     1.36900
C1189       C  0.73904958  0.94320144  0.52830386     0.78000
O1190       O  0.71470193  0.94845126  0.48323050    -0.60500
O1191       O  0.69124877  0.00302357  0.49272940    -0.51400
C1192       C  0.65666988  0.88226957  0.49122754     0.70700
O1193       O  0.68555199  0.87841969  0.49785299    -0.46200
C1194       C  0.63505362  0.96370683  0.53097459     0.75400
O1195       O  0.72165570  0.91147202  0.52676087    -0.58100
O1196       O  0.63603369  0.97744267  0.51535744    -0.48200
O1197       O  0.72832483  0.97426992  0.51983398    -0.54500
C1198       C  0.70996612  0.98656548  0.48107150     0.85500
O1199       O  0.64221273  0.91628701  0.49412572    -0.56400
O1200       O  0.66042870  0.94226272  0.53529141    -0.58900
C1201       C  0.79979327  0.91549065  0.58384224    -0.17400
C1202       C  0.82572568  0.92507728  0.59522377    -0.19600
C1203       C  0.85115269  0.95168973  0.58974009     0.21100
C1204       C  0.85075114  0.96819191  0.57249242    -0.02500
C1205       C  0.82431734  0.95901741  0.56109284    -0.05600
C1206       C  0.79857565  0.93268498  0.56680997     0.21300
C1207       C  0.82309752  0.97730858  0.54418062     0.19500
C1208       C  0.84880954  0.00326629  0.53855692    -0.17100
C1209       C  0.87516121  0.01190101  0.54974406    -0.19300
C1210       C  0.87611933  0.99500976  0.56681456     0.21000
C1211       C  0.90130087  0.00572730  0.57848512    -0.32300
C1212       C  0.90110341  0.99097557  0.59597303     0.01700
C1213       C  0.87617929  0.96335397  0.60138714    -0.23600
C1214       C  0.77154035  0.92528822  0.55562703    -0.28200
C1215       C  0.76952224  0.94510075  0.53910185     0.07400
C1216       C  0.79564074  0.97047476  0.53339927    -0.26900
H1217       H  0.78029742  0.89529374  0.58849838     0.12100
H1218       H  0.82564552  0.91207003  0.60842052     0.13200
H1219       H  0.84827374  0.01742344  0.52557442     0.12300
H1220       H  0.89441559  0.03254538  0.54517286     0.11500
H1221       H  0.92038444  0.02685308  0.57412809     0.16900
H1222       H  0.87521955  0.95246962  0.61490598     0.12800
H1223       H  0.75128033  0.90600974  0.56011973     0.15700
H1224       H  0.79419803  0.98563279  0.52062553     0.15500
C1225       C  0.58399052  0.99076336  0.58967999    -0.17400
C1226       C  0.55726190  0.98577557  0.60167280    -0.19600
C1227       C  0.52739187  0.96784023  0.59644266     0.21100
C1228       C  0.52394879  0.95642602  0.57874294    -0.02500
C1229       C  0.55058384  0.96250877  0.56652400    -0.05600
C1230       C  0.58113475  0.97862642  0.57213327     0.21300
C1231       C  0.54712342  0.95079661  0.54886581     0.19500
C1232       C  0.51706274  0.93355266  0.54355367    -0.17100
C1233       C  0.49107087  0.92659351  0.55573100    -0.19300
C1234       C  0.49445703  0.93732406  0.57339360     0.21000
C1235       C  0.46950832  0.92768384  0.58591557    -0.32300
C1236       C  0.47316566  0.93788466  0.60364336     0.01700
C1237       C  0.50157869  0.95932281  0.60871373    -0.23600
C1238       C  0.60860118  0.98072415  0.56027320    -0.28200
C1239       C  0.60535701  0.96844386  0.54273915     0.07400
C1240       C  0.57427006  0.95479404  0.53701353    -0.26900
H1241       H  0.60710737  0.00350405  0.59420583     0.12100
H1242       H  0.56035925  0.99479982  0.61519421     0.13200
H1243       H  0.51400835  0.92434243  0.53005811     0.12300
H1244       H  0.46852277  0.91215777  0.55138888     0.11500
H1245       H  0.44754444  0.91136618  0.58198482     0.16900
H1246       H  0.99456949  0.98371482  0.61228549     0.12800
H1247       H  0.63264470  0.99099582  0.56473047     0.15700
H1248       H  0.57195281  0.94460068  0.52358982     0.15500
C1249       C  0.66768467  0.77168188  0.44754116    -0.17400
C1250       C  0.65430695  0.75100033  0.43333811    -0.19600
C1251       C  0.62035953  0.75659851  0.42896932     0.21100
C1252       C  0.59933669  0.78188360  0.43952303    -0.02500
C1253       C  0.61288306  0.80290089  0.45383503    -0.05600
C1254       C  0.64738487  0.79839541  0.45765482     0.21300
C1255       C  0.59231590  0.83025770  0.46364681     0.19500
C1256       C  0.55813486  0.83485790  0.45965055    -0.17100
C1257       C  0.54477194  0.81418122  0.44547344    -0.19300
C1258       C  0.56534321  0.78850783  0.43503477     0.21000
C1259       C  0.55330612  0.77234135  0.41936990    -0.32300
C1260       C  0.57491583  0.75018806  0.40800709     0.01700
C1261       C  0.60782907  0.74034032  0.41341877    -0.23600
C1262       C  0.66128618  0.82225804  0.47087347    -0.28200
C1263       C  0.64124553  0.85123781  0.48000933     0.07400
C1264       C  0.60660625  0.85413503  0.47664860    -0.26900
H1265       H  0.69418828  0.76777028  0.45026595     0.12100
H1266       H  0.67083536  0.73173921  0.42537478     0.13200
H1267       H  0.54194615  0.85556747  0.46712673     0.12300
H1268       H  0.51861456  0.81951498  0.44226545     0.11500
H1269       H  0.52816064  0.78056578  0.41509579     0.16900
H1270       H  0.62480226  0.72401994  0.40453642     0.12800
H1271       H  0.68801757  0.82010056  0.47327952     0.15700
H1272       H  0.59096738  0.87634219  0.48366018     0.15500
C1273       C  0.65226670  0.70457418  0.28951229    -0.17400
C1274       C  0.62570605  0.71143545  0.30148082    -0.19600
C1275       C  0.63130537  0.70999397  0.31965388     0.21100
C1276       C  0.66372749  0.69958734  0.32583138    -0.02500
C1277       C  0.69072839  0.69377514  0.31375031    -0.05600
C1278       C  0.68503647  0.69682179  0.29549852     0.21300
C1279       C  0.72365195  0.68698285  0.31996133     0.19500
C1280       C  0.72891089  0.68320621  0.33813086    -0.17100
C1281       C  0.70205442  0.68787178  0.35007876    -0.19300
C1282       C  0.66955847  0.69717490  0.34408109     0.21000
C1283       C  0.64326789  0.70646081  0.35598064    -0.32300
C1284       C  0.61174235  0.72003099  0.34985824     0.01700
C1285       C  0.60562158  0.72088246  0.33172370    -0.23600
C1286       C  0.71239389  0.69403522  0.28360717    -0.28200
C1287       C  0.74546780  0.69008211  0.28976955     0.07400
C1288       C  0.75083780  0.68585460  0.30794658    -0.26900
H1289       H  0.64738199  0.70679823  0.27556094     0.12100
H1290       H  0.60091044  0.71886646  0.29650389     0.13200
H1291       H  0.75394948  0.67754766  0.34312815     0.12300
H1292       H  0.70693761  0.68574526  0.36403908     0.11500
H1293       H  0.64798299  0.70616350  0.36998658     0.16900
H1294       H  0.58124611  0.73133052  0.32704497     0.12800
H1295       H  0.70816137  0.69763908  0.26962157     0.15700
H1296       H  0.77627163  0.68260217  0.31273850     0.15500
C1297       C  0.98450864  0.63493238  0.29013542    -0.17400
C1298       C  0.01117931  0.62863111  0.30173592    -0.19600
C1299       C  0.01501583  0.65465941  0.31606236     0.21100
C1300       C  0.99266293  0.68850260  0.31821862    -0.02500
C1301       C  0.96615633  0.69542634  0.30627902    -0.05600
C1302       C  0.96149600  0.66779066  0.29249276     0.21300
C1303       C  0.94353013  0.72902756  0.30858114     0.19500
C1304       C  0.94811846  0.75587083  0.32253779    -0.17100
C1305       C  0.97383928  0.74839711  0.33460006    -0.19300
C1306       C  0.99581953  0.71435638  0.33274904     0.21000
C1307       C  0.01976228  0.70464879  0.34562472    -0.32300
C1308       C  0.54079464  0.66739356  0.34976695     0.01700
C1309       C  0.53966408  0.64320934  0.33460038    -0.23600
C1310       C  0.93330092  0.67270691  0.28170775    -0.28200
C1311       C  0.91007882  0.70541812  0.28427046     0.07400
C1312       C  0.91598963  0.73425055  0.29733799    -0.26900
H1313       H  0.98151006  0.61364754  0.27951940     0.12100
H1314       H  0.53003548  0.59933150  0.30555669     0.13200
H1315       H  0.93114318  0.78193352  0.32445943     0.12300
H1316       H  0.97612891  0.76882781  0.34559089     0.11500
H1317       H  0.02005129  0.72285928  0.35737922     0.16900
H1318       H  0.55734046  0.61771977  0.33293574     0.12800
H1319       H  0.92913287  0.65074099  0.27146426     0.15700
H1320       H  0.89823118  0.75953745  0.29932552     0.15500
C1321       C  0.85389832  0.54052557  0.19018671    -0.17400
C1322       C  0.87079068  0.51693148  0.17739283    -0.19600
C1323       C  0.90355845  0.52638859  0.17190062     0.21100
C1324       C  0.91981635  0.55911641  0.17985212    -0.02500
C1325       C  0.90241476  0.58369392  0.19235493    -0.05600
C1326       C  0.86920180  0.57451518  0.19751049     0.21300
C1327       C  0.91793284  0.61821998  0.19926322     0.19500
C1328       C  0.95107061  0.62687078  0.19426105    -0.17100
C1329       C  0.96849446  0.60209790  0.18218279    -0.19300
C1330       C  0.95289221  0.56863500  0.17466599     0.21000
C1331       C  0.96887145  0.54665745  0.16108319    -0.32300
C1332       C  0.95134588  0.51755556  0.15156167     0.01700
C1333       C  0.91934261  0.50592706  0.15770850    -0.23600
C1334       C  0.85181235  0.59989436  0.20963907    -0.28200
C1335       C  0.86692851  0.63502817  0.21616694     0.07400
C1336       C  0.89998219  0.64383013  0.21089002    -0.26900
H1337       H  0.82849407  0.53283305  0.19400521     0.12100
H1338       H  0.85793144  0.49180220  0.17151294     0.13200
H1339       H  0.96339861  0.65315172  0.19953025     0.12300
H1340       H  0.99381055  0.60996542  0.17826858     0.11500
H1341       H  0.99354679  0.55566576  0.15649457     0.16900
H1342       H  0.90538098  0.48390022  0.15042652     0.12800
H1343       H  0.82638230  0.59285995  0.21369968     0.15700
H1344       H  0.91199058  0.67047366  0.21606120     0.15500
C1345       C  0.90607625  0.49021902  0.04543984    -0.17400
C1346       C  0.88066034  0.48490268  0.03325766    -0.19600
C1347       C  0.84887095  0.47193759  0.03883857     0.21100
C1348       C  0.84293803  0.46297035  0.05683075    -0.02500
C1349       C  0.86882788  0.46755367  0.06908787    -0.05600
C1350       C  0.90027126  0.48219668  0.06338708     0.21300
C1351       C  0.86280243  0.45918090  0.08711688     0.19500
C1352       C  0.83113615  0.44563434  0.09266637    -0.17100
C1353       C  0.80526807  0.44194329  0.08057068    -0.19300
C1354       C  0.81075407  0.45114302  0.06267861     0.21000
C1355       C  0.78437912  0.45036783  0.05063890    -0.32300
C1356       C  0.79011594  0.45992881  0.03278906     0.01700
C1357       C  0.82253138  0.46953107  0.02687351    -0.23600
C1358       C  0.92481052  0.49032223  0.07580217    -0.28200
C1359       C  0.91852639  0.48343649  0.09380367     0.07400
C1360       C  0.88799069  0.46644287  0.09934126    -0.26900
H1361       H  0.93011196  0.50133259  0.04085621     0.12100
H1362       H  0.88560894  0.49198412  0.01951288     0.13200
H1363       H  0.82608092  0.43904237  0.10644020     0.12300
H1364       H  0.78077846  0.43256467  0.08526521     0.11500
H1365       H  0.75921141  0.44335115  0.05517893     0.16900
H1366       H  0.82668927  0.47771746  0.01315298     0.12800
H1367       H  0.94844376  0.50325447  0.07155546     0.15700
H1368       H  0.88302985  0.46153188  0.11325977     0.15500
C1369       C  0.55283180  0.41840520  0.03599855    -0.17400
C1370       C  0.52675300  0.41168398  0.04812426    -0.19600
C1371       C  0.52425609  0.43454208  0.06358232     0.21100
C1372       C  0.54745130  0.46564645  0.06650958    -0.02500
C1373       C  0.57338054  0.47301371  0.05410268    -0.05600
C1374       C  0.57651066  0.44853598  0.03901138     0.21300
C1375       C  0.59690980  0.50375698  0.05713378     0.19500
C1376       C  0.59396680  0.52715116  0.07243055    -0.17100
C1377       C  0.56865773  0.51926887  0.08489434    -0.19300
C1378       C  0.54561233  0.48821532  0.08216257     0.21000
C1379       C  0.52173728  0.47812932  0.09513859    -0.32300
C1380       C  0.49900789  0.44648026  0.09253716     0.01700
C1381       C  0.49986440  0.42565518  0.07647694    -0.23600
C1382       C  0.60389424  0.45368190  0.02751079    -0.28200
C1383       C  0.62767710  0.48364651  0.03064001     0.07400
C1384       C  0.62363280  0.50943360  0.04514914    -0.26900
H1385       H  0.55480002  0.39957993  0.02440361     0.12100
H1386       H  0.50910081  0.38778403  0.04565164     0.13200
H1387       H  0.61176433  0.55084598  0.07497313     0.12300
H1388       H  0.56744331  0.53702712  0.09682082     0.11500
H1389       H  0.01227979  0.47534274  0.11087355     0.16900
H1390       H  0.48231971  0.40149484  0.07426049     0.12800
H1391       H  0.60707634  0.43394614  0.01623372     0.15700
H1392       H  0.64225266  0.53226403  0.04759995     0.15500
C1393       C  0.63250591  0.00032920  0.03951289    -0.17400
C1394       C  0.65767956  0.01063774  0.05115827    -0.19600
C1395       C  0.65532850  0.99937539  0.06900636     0.21100
C1396       C  0.62767636  0.97662401  0.07510523    -0.02500
C1397       C  0.60192496  0.96685574  0.06340686    -0.05600
C1398       C  0.60434217  0.97898625  0.04554757     0.21300
C1399       C  0.57311058  0.94662356  0.06973371     0.19500
C1400       C  0.57119334  0.93442711  0.08749912    -0.17100
C1401       C  0.59707918  0.94327145  0.09900325    -0.19300
C1402       C  0.62509149  0.96505092  0.09301606     0.21000
C1403       C  0.64981440  0.97695163  0.10474666    -0.32300
C1404       C  0.67658938  0.00124454  0.09890983     0.01700
C1405       C  0.67948533  0.01172285  0.08096277    -0.23600
C1406       C  0.57781695  0.97144374  0.03422346    -0.28200
C1407       C  0.54835352  0.95357976  0.04066224     0.07400
C1408       C  0.54617484  0.94075195  0.05835691    -0.26900
H1409       H  0.63465092  0.00999414  0.02586082     0.12100
H1410       H  0.67875399  0.02801567  0.04624848     0.13200
H1411       H  0.54939601  0.91866058  0.09257128     0.12300
H1412       H  0.59473968  0.93407201  0.11270678     0.11500
H1413       H  0.64723600  0.96922122  0.11860153     0.16900
H1414       H  0.70019766  0.03020702  0.07639039     0.12800
H1415       H  0.57901602  0.98226485  0.02068250     0.15700
H1416       H  0.01895013  0.93321406  0.06356399     0.15500
C1417       C  0.80684589  0.89787446  0.19700624    -0.17400
C1418       C  0.79258484  0.92231272  0.18360291    -0.19600
C1419       C  0.75835607  0.91967309  0.17972666     0.21100
C1420       C  0.73789744  0.89403021  0.19018713    -0.02500
C1421       C  0.75235940  0.86902555  0.20357962    -0.05600
C1422       C  0.78719686  0.87013546  0.20670755     0.21300
C1423       C  0.73233862  0.84091188  0.21299363     0.19500
C1424       C  0.69777079  0.83991523  0.20981707    -0.17100
C1425       C  0.68347780  0.86468931  0.19661118    -0.19300
C1426       C  0.70351002  0.89080643  0.18634306     0.21000
C1427       C  0.69053058  0.91046592  0.17128147    -0.32300
C1428       C  0.71176437  0.93180904  0.15961479     0.01700
C1429       C  0.74500116  0.93892649  0.16459861    -0.23600
C1430       C  0.80197230  0.84183072  0.21868294    -0.28200
C1431       C  0.78239461  0.81179934  0.22710379     0.07400
C1432       C  0.74747032  0.81258033  0.22464763    -0.26900
H1433       H  0.83355792  0.89943641  0.19927872     0.12100
H1434       H  0.80864827  0.94199894  0.17577373     0.13200
H1435       H  0.68202244  0.81876796  0.21706260     0.12300
H1436       H  0.65701130  0.86196733  0.19388188     0.11500
H1437       H  0.66500495  0.90469983  0.16740531     0.16900
H1438       H  0.76161559  0.95500425  0.15558843     0.12800
H1439       H  0.82890102  0.84142027  0.22054807     0.15700
H1440       H  0.73219433  0.78988237  0.23128251     0.15500
C1441       C  0.80659855  0.91468414  0.04485222    -0.17400
C1442       C  0.77909335  0.91081705  0.05634032    -0.19600
C1443       C  0.77645399  0.93458032  0.07154388     0.21100
C1444       C  0.80107482  0.96370303  0.07485834    -0.02500
C1445       C  0.82847988  0.96829886  0.06303315    -0.05600
C1446       C  0.83160917  0.94293628  0.04820515     0.21300
C1447       C  0.85323540  0.99735577  0.06632787     0.19500
C1448       C  0.85016701  0.02166881  0.08136568    -0.17100
C1449       C  0.82343887  0.01639046  0.09330969    -0.19300
C1450       C  0.79898136  0.98713254  0.09029019     0.21000
C1451       C  0.77338810  0.97957115  0.10277985    -0.32300
C1452       C  0.74943396  0.94943281  0.09987493     0.01700
C1453       C  0.75046589  0.92834024  0.08385854    -0.23600
C1454       C  0.86000834  0.94566259  0.03718466    -0.28200
C1455       C  0.88482925  0.97431088  0.04043145     0.07400
C1456       C  0.88098082  0.00075429  0.05477161    -0.26900
H1457       H  0.80850932  0.89523046  0.03345153     0.12100
H1458       H  0.76036122  0.88836169  0.05358997     0.13200
H1459       H  0.86889239  0.04415232  0.08411223     0.12300
H1460       H  0.82215410  0.03479666  0.10503832     0.11500
H1461       H  0.77322905  0.99564544  0.11512184     0.16900
H1462       H  0.73187496  0.90559539  0.08129630     0.12800
H1463       H  0.86283674  0.92552246  0.02602576     0.15700
H1464       H  0.90023920  0.02272660  0.05731726     0.15500
C1465       C  0.51762996  0.89941516  0.68418510    -0.17400
C1466       C  0.53284516  0.87371623  0.69686015    -0.19600
C1467       C  0.51386728  0.84512852  0.70647048     0.21100
C1468       C  0.47889882  0.84389210  0.70385221    -0.02500
C1469       C  0.46349371  0.87006339  0.69114324    -0.05600
C1470       C  0.48313236  0.89709767  0.68089614     0.21300
C1471       C  0.93251261  0.89443546  0.68820875     0.19500
C1472       C  0.91307667  0.87194446  0.70029864    -0.17100
C1473       C  0.92848520  0.84811996  0.71350109    -0.19300
C1474       C  0.45955140  0.81505207  0.71327351     0.21000
C1475       C  0.47537318  0.78680411  0.72475402    -0.32300
C1476       C  0.51032875  0.78692156  0.72705426     0.01700
C1477       C  0.52934212  0.81683262  0.71816650    -0.23600
C1478       C  0.46860561  0.91833308  0.66652696    -0.28200
C1479       C  0.93812079  0.92957264  0.65977741     0.07400
C1480       C  0.91790416  0.91224551  0.67312469    -0.26900
H1481       H  0.53311977  0.92005090  0.67648598     0.12100
H1482       H  0.55966380  0.87532704  0.69875414     0.13200
H1483       H  0.88606847  0.87111879  0.69900445     0.12300
H1484       H  0.91299111  0.82962431  0.72217693     0.11500
H1485       H  0.96422010  0.79822406  0.73458441     0.16900
H1486       H  0.55627997  0.81721033  0.71990204     0.12800
H1487       H  0.48452751  0.93580094  0.65764959     0.15700
H1488       H  0.89152794  0.90778274  0.67065371     0.15500
C1489       C  0.85115492  0.94696315  0.93491985    -0.17400
C1490       C  0.83542308  0.92973365  0.92055207    -0.19600
C1491       C  0.84224452  0.88874410  0.91605546     0.21100
C1492       C  0.86413160  0.86443447  0.92655694    -0.02500
C1493       C  0.88028117  0.88195686  0.94095018    -0.05600
C1494       C  0.87413760  0.92358462  0.94497586     0.21300
C1495       C  0.90345515  0.85819519  0.95091148     0.19500
C1496       C  0.90938685  0.81683617  0.94676573    -0.17100
C1497       C  0.89334196  0.79945548  0.93254749    -0.19300
C1498       C  0.87114640  0.82315227  0.92218540     0.21000
C1499       C  0.85744572  0.80701560  0.90695513    -0.32300
C1500       C  0.83750802  0.83188212  0.89583124     0.01700
C1501       C  0.82913834  0.87230809  0.90071582    -0.23600
C1502       C  0.89172462  0.94132420  0.95867995    -0.28200
C1503       C  0.91560036  0.91812869  0.96835686     0.07400
C1504       C  0.92090429  0.87640434  0.96455465    -0.26900
H1505       H  0.84595433  0.97891269  0.93790786     0.12100
H1506       H  0.81853708  0.94876016  0.91270126     0.13200
H1507       H  0.92696211  0.79810178  0.95432011     0.12300
H1508       H  0.89896228  0.76772183  0.92938158     0.11500
H1509       H  0.86443608  0.77611127  0.90301356     0.16900
H1510       H  0.81398494  0.89158490  0.89203381     0.12800
H1511       H  0.88724130  0.97346566  0.96160231     0.15700
H1512       H  0.93903096  0.85826081  0.97201709     0.15500
C1513       C  0.86208392  0.71080954  0.80129924    -0.17400
C1514       C  0.88876677  0.70086897  0.78983553    -0.19600
C1515       C  0.92145094  0.69508683  0.79621614     0.21100
C1516       C  0.92690641  0.69665260  0.81448426    -0.02500
C1517       C  0.89976152  0.70579668  0.82612179    -0.05600
C1518       C  0.86750900  0.71463176  0.81937380     0.21300
C1519       C  0.90550445  0.70971028  0.84427875     0.19500
C1520       C  0.93792049  0.70205004  0.85075740    -0.17100
C1521       C  0.96486437  0.69358977  0.83920793    -0.19300
C1522       C  0.95981825  0.69214900  0.82099104     0.21000
C1523       C  0.48496268  0.68703248  0.81407598    -0.32300
C1524       C  0.47929786  0.67990886  0.79619307     0.01700
C1525       C  0.94895715  0.69052721  0.78455027    -0.23600
C1526       C  0.84232641  0.73135696  0.83044884    -0.28200
C1527       C  0.84919768  0.73983333  0.84806592     0.07400
C1528       C  0.87973579  0.72551867  0.85526602    -0.26900
H1529       H  0.83745293  0.71727313  0.79590648     0.12100
H1530       H  0.88410167  0.69961998  0.77587048     0.13200
H1531       H  0.94278464  0.70476387  0.86466125     0.12300
H1532       H  0.48892642  0.70070164  0.84869634     0.11500
H1533       H  0.51037026  0.69111833  0.81852262     0.16900
H1534       H  0.94476331  0.69119013  0.77050499     0.12800
H1535       H  0.81896332  0.74279580  0.82484177     0.15700
H1536       H  0.88527852  0.73258764  0.86878720     0.15500
C1537       C  0.78424262  0.58677928  0.92150655    -0.17400
C1538       C  0.79378918  0.61797222  0.90978399    -0.19600
C1539       C  0.79639971  0.65839263  0.91556641     0.21100
C1540       C  0.79080137  0.66714458  0.93351824    -0.02500
C1541       C  0.78085143  0.63571098  0.94532678    -0.05600
C1542       C  0.77703710  0.59551092  0.93919289     0.21300
C1543       C  0.77298323  0.64497129  0.96302058     0.19500
C1544       C  0.77695760  0.68508130  0.96895311    -0.17100
C1545       C  0.78676764  0.71624408  0.95724325    -0.19300
C1546       C  0.79273421  0.70782432  0.93940969     0.21000
C1547       C  0.79729904  0.73976944  0.92709885    -0.32300
C1548       C  0.79884579  0.73153366  0.90900065     0.01700
C1549       C  0.80123007  0.69067979  0.90345596    -0.23600
C1550       C  0.76487185  0.56509698  0.95067171    -0.28200
C1551       C  0.75554326  0.57451828  0.96807212     0.07400
C1552       C  0.76012381  0.61434550  0.97426334    -0.26900
H1553       H  0.78147861  0.55604346  0.91660941     0.12100
H1554       H  0.79792066  0.61074996  0.89605302     0.13200
H1555       H  0.77141434  0.69264175  0.98252170     0.12300
H1556       H  0.78831785  0.74729370  0.96199408     0.11500
H1557       H  0.79534743  0.77136368  0.93134475     0.16900
H1558       H  0.80211415  0.68427191  0.88950435     0.12800
H1559       H  0.76134531  0.53441076  0.94584858     0.15700
H1560       H  0.75329607  0.62156279  0.98773057     0.15500
C1561       C  0.70304682  0.66784107  0.81624149    -0.17400
C1562       C  0.72723778  0.67727724  0.82862496    -0.19600
C1563       C  0.73275447  0.71821954  0.83298153     0.21100
C1564       C  0.71502630  0.75005845  0.82405058    -0.02500
C1565       C  0.69066190  0.74053072  0.81153737    -0.05600
C1566       C  0.68399931  0.69919012  0.80796935     0.21300
C1567       C  0.67170313  0.77235423  0.80333485     0.19500
C1568       C  0.67832720  0.81334419  0.80705668    -0.17100
C1569       C  0.70213158  0.82276085  0.81959336    -0.19300
C1570       C  0.71987573  0.79133251  0.82851940     0.21000
C1571       C  0.74013290  0.80025099  0.84281461    -0.32300
C1572       C  0.75549373  0.76848258  0.85267219     0.01700
C1573       C  0.75342229  0.72776126  0.84708647    -0.23600
C1574       C  0.65753652  0.68997696  0.79677247    -0.28200
C1575       C  0.63759237  0.72160241  0.78918167     0.07400
C1576       C  0.64550002  0.76267578  0.79214563    -0.26900
H1577       H  0.69849273  0.63594419  0.81354968     0.12100
H1578       H  0.74070368  0.65245360  0.83529933     0.13200
H1579       H  0.66419885  0.83814116  0.80073955     0.12300
H1580       H  0.70575427  0.85458746  0.82277820     0.11500
H1581       H  0.74147174  0.83155437  0.84730116     0.16900
H1582       H  0.76486321  0.70322782  0.85491081     0.12800
H1583       H  0.65185831  0.65822688  0.79438141     0.15700
H1584       H  0.63051482  0.78723866  0.78619045     0.15500
C1585       C  0.97651151  0.65307807  0.42234720    -0.17400
C1586       C  0.95795923  0.63255461  0.43543006    -0.19600
C1587       C  0.97407218  0.60617428  0.44758268     0.21100
C1588       C  0.00947148  0.60196285  0.44696749    -0.02500
C1589       C  0.52274479  0.62574430  0.43880064    -0.05600
C1590       C  0.01155958  0.64762251  0.42115796     0.21300
C1591       C  0.55817680  0.62218086  0.43875954     0.19500
C1592       C  0.57427372  0.60012866  0.45230608    -0.17100
C1593       C  0.55548080  0.57977664  0.46523296    -0.19300
C1594       C  0.52028303  0.58104440  0.46479158     0.21000
C1595       C  0.00721773  0.55197025  0.47094195    -0.32300
C1596       C  0.97187358  0.55437959  0.47114839     0.01700
C1597       C  0.95544369  0.58250855  0.45977394    -0.23600
C1598       C  0.02981964  0.66358322  0.40674151    -0.28200
C1599       C  0.56037705  0.65537352  0.40989936     0.07400
C1600       C  0.57675677  0.63742185  0.42439079    -0.26900
H1601       H  0.96329929  0.67207382  0.41276669     0.12100
H1602       H  0.93085822  0.63636557  0.43570270     0.13200
H1603       H  0.60140940  0.59720557  0.45250093     0.12300
H1604       H  0.56851625  0.56168680  0.47519099     0.11500
H1605       H  0.51463555  0.53734433  0.48594738     0.16900
H1606       H  0.92824038  0.58450110  0.45981698     0.12800
H1607       H  0.01648725  0.67950981  0.39624542     0.15700
H1608       H  0.60361660  0.63137155  0.42358952     0.15500
C1609       C  0.69583118  0.58265065  0.68621688    -0.17400
C1610       C  0.68139912  0.60354211  0.70046265    -0.19600
C1611       C  0.64854424  0.59533389  0.70612658     0.21100
C1612       C  0.63055141  0.56443552  0.69791973    -0.02500
C1613       C  0.64509655  0.54344258  0.68344952    -0.05600
C1614       C  0.67761102  0.55330334  0.67735773     0.21300
C1615       C  0.62629680  0.51464811  0.67438099     0.19500
C1616       C  0.59384856  0.50544299  0.68047380    -0.17100
C1617       C  0.57960651  0.52584056  0.69497310    -0.19300
C1618       C  0.59741830  0.55608185  0.70355693     0.21000
C1619       C  0.58224892  0.57945631  0.71708770    -0.32300
C1620       C  0.59953008  0.61182159  0.72455638     0.01700
C1621       C  0.63288829  0.61882167  0.71930270    -0.23600
C1622       C  0.69025719  0.53621259  0.66171786    -0.28200
C1623       C  0.67045508  0.51046199  0.65175723     0.07400
C1624       C  0.63918375  0.49815479  0.65861786    -0.26900
H1625       H  0.72081034  0.59055560  0.68172075     0.12100
H1626       H  0.69559091  0.62701642  0.70672233     0.13200
H1627       H  0.57907995  0.48336369  0.67369267     0.12300
H1628       H  0.55420315  0.51889654  0.69911142     0.11500
H1629       H  0.55648617  0.57404133  0.72109025     0.16900
H1630       H  0.64640812  0.64346360  0.72517809     0.12800
H1631       H  0.71406075  0.54629104  0.65631228     0.15700
H1632       H  0.62343288  0.47909951  0.65081313     0.15500
C1633       C  0.51926669  0.42941922  0.58534637    -0.17400
C1634       C  0.54590329  0.43582879  0.59669641    -0.19600
C1635       C  0.57691062  0.44912567  0.59005709     0.21100
C1636       C  0.58157338  0.45436260  0.57173439    -0.02500
C1637       C  0.55495192  0.44679405  0.56024315    -0.05600
C1638       C  0.52334880  0.43541453  0.56713589     0.21300
C1639       C  0.55952180  0.45239108  0.54193719     0.19500
C1640       C  0.59073186  0.46498359  0.53527537    -0.17100
C1641       C  0.61680236  0.47350760  0.54669132    -0.19300
C1642       C  0.61230141  0.46898294  0.56494172     0.21000
C1643       C  0.63729660  0.48063180  0.57655795    -0.32300
C1644       C  0.63232537  0.47657287  0.59480690     0.01700
C1645       C  0.60269370  0.45932101  0.60145709    -0.23600
C1646       C  0.49611762  0.43185299  0.55576628    -0.28200
C1647       C  0.50040661  0.43813328  0.53756582     0.07400
C1648       C  0.53239580  0.44709926  0.53068889    -0.26900
H1649       H  0.49525785  0.42041875  0.59085573     0.12100
H1650       H  0.54191516  0.43166395  0.61071574     0.13200
H1651       H  0.59465408  0.46942773  0.52126418     0.12300
H1652       H  0.64030926  0.48439791  0.54125170     0.11500
H1653       H  0.66023141  0.49394082  0.57147943     0.16900
H1654       H  0.59878824  0.45665723  0.61555783     0.12800
H1655       H  0.96802000  0.43492325  0.55999757     0.15700
H1656       H  0.53560984  0.45267010  0.51668560     0.15500
C1657       C  0.77766377  0.50506835  0.58567222    -0.17400
C1658       C  0.80255491  0.51331107  0.57296373    -0.19600
C1659       C  0.80472475  0.49075933  0.55738959     0.21100
C1660       C  0.78067291  0.46067823  0.55432856    -0.02500
C1661       C  0.75531285  0.45272208  0.56705830    -0.05600
C1662       C  0.75428690  0.47432342  0.58299542     0.21300
C1663       C  0.73188783  0.42191686  0.56413511     0.19500
C1664       C  0.73334915  0.40018583  0.54835813    -0.17100
C1665       C  0.75869133  0.40762819  0.53588538    -0.19300
C1666       C  0.78278525  0.43728473  0.53889100     0.21000
C1667       C  0.80971971  0.44269926  0.52707757    -0.32300
C1668       C  0.83453048  0.47146587  0.53032794     0.01700
C1669       C  0.83129654  0.49639994  0.54521296    -0.23600
C1670       C  0.73095566  0.46348717  0.59625435    -0.28200
C1671       C  0.70842726  0.43154777  0.59370594     0.07400
C1672       C  0.70836900  0.41203904  0.57732951    -0.26900
H1673       H  0.77714827  0.52216723  0.59777339     0.12100
H1674       H  0.82068735  0.53659856  0.57554101     0.13200
H1675       H  0.71546181  0.37652121  0.54588575     0.12300
H1676       H  0.75986245  0.38957932  0.52405033     0.11500
H1677       H  0.81200421  0.42350906  0.51558770     0.16900
H1678       H  0.85049236  0.51836289  0.54785128     0.12800
H1679       H  0.73150748  0.47850298  0.60884214     0.15700
H1680       H  0.69075142  0.38797329  0.57505053     0.15500
C1681       C  0.73974282  0.10962751  0.19010423    -0.17400
C1682       C  0.72534630  0.13392008  0.20338272    -0.19600
C1683       C  0.69149401  0.12978992  0.20832996     0.21100
C1684       C  0.67242283  0.09943487  0.20039802    -0.02500
C1685       C  0.68698737  0.07486685  0.18694208    -0.05600
C1686       C  0.72054742  0.08077772  0.18148521     0.21300
C1687       C  0.66732988  0.04637066  0.17818092     0.19500
C1688       C  0.63392373  0.04091739  0.18370900    -0.17100
C1689       C  0.61960925  0.06493032  0.19714300    -0.19300
C1690       C  0.63835280  0.09505688  0.20526080     0.21000
C1691       C  0.62330548  0.12192531  0.21759778    -0.32300
C1692       C  0.64175314  0.15356330  0.22495860     0.01700
C1693       C  0.67608274  0.15653780  0.22053346    -0.23600
C1694       C  0.73344309  0.06036092  0.16660317    -0.28200
C1695       C  0.71291064  0.03522017  0.15668672     0.07400
C1696       C  0.68049866  0.02649077  0.16317144    -0.26900
H1697       H  0.76556953  0.11450261  0.18612433     0.12100
H1698       H  0.74046135  0.15684340  0.20942395     0.13200
H1699       H  0.61847051  0.01903156  0.17722232     0.12300
H1700       H  0.59350746  0.06084959  0.20078046     0.11500
H1701       H  0.59692421  0.11918428  0.22095961     0.16900
H1702       H  0.69064465  0.18051324  0.22621682     0.12800
H1703       H  0.75826662  0.06752125  0.16159639     0.15700
H1704       H  0.66425966  0.00773082  0.15550057     0.15500
C1705       C  0.54994509  0.43170893  0.17576124    -0.17400
C1706       C  0.56614842  0.41131994  0.18973921    -0.19600
C1707       C  0.54866508  0.38377767  0.20066151     0.21100
C1708       C  0.51398913  0.37864225  0.19805249    -0.02500
C1709       C  0.49751948  0.39972620  0.18411492    -0.05600
C1710       C  0.51588221  0.42523474  0.17253587     0.21300
C1711       C  0.95020918  0.37145191  0.18245466     0.19500
C1712       C  0.93439817  0.34161577  0.19293772    -0.17100
C1713       C  0.95141847  0.32236544  0.20688966    -0.19300
C1714       C  0.49619311  0.35047324  0.20866116     0.21000
C1715       C  0.51347516  0.32599646  0.22104709    -0.32300
C1716       C  0.54822785  0.32963755  0.22323145     0.01700
C1717       C  0.56549806  0.35971996  0.21350797    -0.23600
C1718       C  0.50072178  0.44062108  0.15711336    -0.28200
C1719       C  0.95294023  0.41210519  0.15518520     0.07400
C1720       C  0.93513847  0.38670064  0.16701698    -0.26900
H1721       H  0.56441070  0.45135214  0.16706059     0.12100
H1722       H  0.59269050  0.41587248  0.19157308     0.13200
H1723       H  0.90937121  0.33189627  0.18988619     0.12300
H1724       H  0.93910863  0.29832108  0.21434634     0.11500
H1725       H  0.99144020  0.28542441  0.23047414     0.16900
H1726       H  0.59229119  0.36260484  0.21518157     0.12800
H1727       H  0.51582329  0.45671598  0.14737989     0.15700
H1728       H  0.91103458  0.37521284  0.16322344     0.15500
C1729       C  0.86123141  0.33204600  0.40752848    -0.17400
C1730       C  0.87214467  0.36308683  0.41845790    -0.19600
C1731       C  0.87468768  0.35624239  0.43667068     0.21100
C1732       C  0.86468461  0.31834008  0.44400876    -0.02500
C1733       C  0.85288874  0.28742013  0.43303726    -0.05600
C1734       C  0.85218797  0.29381754  0.41464658     0.21300
C1735       C  0.84377786  0.24920041  0.44038673     0.19500
C1736       C  0.84522933  0.24277690  0.45863439    -0.17100
C1737       C  0.85728212  0.27316866  0.46946303    -0.19300
C1738       C  0.86771982  0.31066232  0.46223088     0.21000
C1739       C  0.88168045  0.34026746  0.47288478    -0.32300
C1740       C  0.89187434  0.37798030  0.46570236     0.01700
C1741       C  0.88771220  0.38615966  0.44763788    -0.23600
C1742       C  0.84534308  0.26081808  0.40367912    -0.28200
C1743       C  0.83993898  0.22153779  0.41096112     0.07400
C1744       C  0.83635998  0.21689252  0.42928425    -0.26900
H1745       H  0.86078088  0.33754983  0.39344606     0.12100
H1746       H  0.87955706  0.39202905  0.41259608     0.13200
H1747       H  0.83829935  0.21359205  0.46447073     0.12300
H1748       H  0.85912553  0.26700883  0.48344760     0.11500
H1749       H  0.88422447  0.33417519  0.48685434     0.16900
H1750       H  0.89531560  0.41536645  0.44208522     0.12800
H1751       H  0.84823532  0.26457618  0.38954941     0.15700
H1752       H  0.83206807  0.18663009  0.43488870     0.15500
C1753       C  0.91810562  0.25535315  0.33055681    -0.17400
C1754       C  0.94286319  0.26439505  0.31791803    -0.19600
C1755       C  0.96638260  0.23412147  0.31258121     0.21100
C1756       C  0.96444777  0.19407708  0.31977211    -0.02500
C1757       C  0.93952839  0.18498626  0.33256635    -0.05600
C1758       C  0.91648563  0.21591303  0.33813477     0.21300
C1759       C  0.93847014  0.14535512  0.34023713     0.19500
C1760       C  0.96161746  0.11489322  0.33471039    -0.17100
C1761       C  0.98606726  0.12378375  0.32192338    -0.19300
C1762       C  0.98790171  0.16333372  0.31449759     0.21000
C1763       C  0.51519815  0.17240150  0.29765382    -0.32300
C1764       C  0.51612774  0.21205162  0.29015661     0.01700
C1765       C  0.99203923  0.24326943  0.30036645    -0.23600
C1766       C  0.89347357  0.20743772  0.35182125    -0.28200
C1767       C  0.89367713  0.16869122  0.36020200     0.07400
C1768       C  0.91543829  0.13743987  0.35391855    -0.26900
H1769       H  0.90062084  0.27945771  0.33466395     0.12100
H1770       H  0.94387639  0.29525048  0.31247345     0.13200
H1771       H  0.96116436  0.08433919  0.34049260     0.12300
H1772       H  0.00388218  0.09983676  0.31802500     0.11500
H1773       H  0.53451097  0.14981447  0.29419733     0.16900
H1774       H  0.49115772  0.27165764  0.28892104     0.12800
H1775       H  0.87721233  0.23185965  0.35684191     0.15700
H1776       H  0.91574566  0.10759516  0.36040853     0.15500
C1777       C  0.73460784  0.11708683  0.44940644    -0.17400
C1778       C  0.74935601  0.13822230  0.43520382    -0.19600
C1779       C  0.76778310  0.11690009  0.42221827     0.21100
C1780       C  0.77195013  0.07387523  0.42378845    -0.02500
C1781       C  0.75706566  0.05253968  0.43813289    -0.05600
C1782       C  0.73801244  0.07420652  0.45091969     0.21300
C1783       C  0.76077062  0.00946699  0.43949316     0.19500
C1784       C  0.77967820  0.98818448  0.42668410    -0.17100
C1785       C  0.79420610  0.00924069  0.41244091    -0.19300
C1786       C  0.79019832  0.05199644  0.41077342     0.21000
C1787       C  0.80308627  0.07300867  0.39600775    -0.32300
C1788       C  0.79803200  0.11564838  0.39401392     0.01700
C1789       C  0.78100304  0.13755190  0.40737103    -0.23600
C1790       C  0.72249567  0.05261197  0.46488250    -0.28200
C1791       C  0.72584901  0.00960366  0.46624898     0.07400
C1792       C  0.74526007  0.98838012  0.45352739    -0.26900
H1793       H  0.72021566  0.13427884  0.45912415     0.12100
H1794       H  0.74593691  0.17124351  0.43424540     0.13200
H1795       H  0.78288541  0.95511210  0.42756065     0.12300
H1796       H  0.80820389  0.99199280  0.40258921     0.11500
H1797       H  0.81609895  0.05600317  0.38572294     0.16900
H1798       H  0.77647232  0.17030101  0.40573040     0.12800
H1799       H  0.70784069  0.06926049  0.47467598     0.15700
H1800       H  0.74818434  0.95526229  0.45448661     0.15500
C1801       C  0.70599549  0.25014479  0.35322346    -0.17400
C1802       C  0.67997244  0.25815005  0.34140572    -0.19600
C1803       C  0.68703926  0.26487630  0.32347258     0.21100
C1804       C  0.72075093  0.26662094  0.31760710    -0.02500
C1805       C  0.74705580  0.25802578  0.32951580    -0.05600
C1806       C  0.73950805  0.24831727  0.34726646     0.21300
C1807       C  0.78057020  0.25508364  0.32328083     0.19500
C1808       C  0.78777352  0.26501637  0.30562083    -0.17100
C1809       C  0.76178446  0.27437430  0.29389749    -0.19300
C1810       C  0.72811031  0.27347444  0.29959577     0.21000
C1811       C  0.70177317  0.27622898  0.28745264    -0.32300
C1812       C  0.66831172  0.27082640  0.29305777     0.01700
C1813       C  0.66109127  0.26692574  0.31116585    -0.23600
C1814       C  0.76492462  0.23222203  0.35816854    -0.28200
C1815       C  0.79697934  0.22266661  0.35110774     0.07400
C1816       C  0.80547207  0.23762707  0.33420693    -0.26900
H1817       H  0.69975421  0.24294844  0.36681589     0.12100
H1818       H  0.65422812  0.25719368  0.34616548     0.13200
H1819       H  0.81340404  0.26341643  0.30064576     0.12300
H1820       H  0.76795287  0.28006131  0.28017886     0.11500
H1821       H  0.70753312  0.27934843  0.27353600     0.16900
H1822       H  0.63533811  0.26324594  0.31560452     0.12800
H1823       H  0.75821877  0.22055840  0.37114934     0.15700
H1824       H  0.83012746  0.23023917  0.32871051     0.15500
C1825       C  0.94694416  0.10197745  0.68932214    -0.17400
C1826       C  0.92973493  0.12279031  0.70277883    -0.19600
C1827       C  0.89622195  0.11391069  0.70688248     0.21100
C1828       C  0.88027273  0.08254508  0.69785847    -0.02500
C1829       C  0.89759243  0.06174544  0.68413562    -0.05600
C1830       C  0.93087961  0.07208072  0.67966221     0.21300
C1831       C  0.88097856  0.03238194  0.67425489     0.19500
C1832       C  0.84783843  0.02245455  0.67882260    -0.17100
C1833       C  0.83087025  0.04253372  0.69262881    -0.19300
C1834       C  0.84657925  0.07328519  0.70199854     0.21000
C1835       C  0.82889819  0.09604767  0.71492280    -0.32300
C1836       C  0.84424961  0.12876651  0.72325641     0.01700
C1837       C  0.87805860  0.13691899  0.71938551    -0.23600
C1838       C  0.94670907  0.05451727  0.66487427    -0.28200
C1839       C  0.92938664  0.02777672  0.65410995     0.07400
C1840       C  0.89694169  0.01567097  0.65927918    -0.26900
H1841       H  0.97248525  0.11025179  0.68608237     0.12100
H1842       H  0.94240235  0.14658689  0.70969347     0.13200
H1843       H  0.83472560  0.99986018  0.67142031     0.12300
H1844       H  0.80509108  0.03486602  0.69562526     0.11500
H1845       H  0.80282290  0.08967972  0.71786363     0.16900
H1846       H  0.89011033  0.16178202  0.72594058     0.12800
H1847       H  0.97142420  0.06448964  0.66079354     0.15700
H1848       H  0.88301563  0.99594988  0.65083780     0.15500
C1849       C  0.75397985  0.40311954  0.67902179    -0.17400
C1850       C  0.76875824  0.37994758  0.69267331    -0.19600
C1851       C  0.75024171  0.35057401  0.70209677     0.21100
C1852       C  0.71602618  0.34589393  0.69820370    -0.02500
C1853       C  0.70094796  0.36979901  0.68461527    -0.05600
C1854       C  0.72029465  0.39764447  0.67461539     0.21300
C1855       C  0.66711596  0.36384534  0.68029787     0.19500
C1856       C  0.64829369  0.33537004  0.69002739    -0.17100
C1857       C  0.66325646  0.31153614  0.70335765    -0.19300
C1858       C  0.69725476  0.31596512  0.70730794     0.21000
C1859       C  0.71301062  0.29010637  0.71979964    -0.32300
C1860       C  0.74726789  0.29391122  0.72354286     0.01700
C1861       C  0.76555363  0.32487708  0.71489591    -0.23600
C1862       C  0.70653673  0.41659962  0.65948696    -0.28200
C1863       C  0.67392595  0.40735213  0.65411831     0.07400
C1864       C  0.65359779  0.38355550  0.66536352    -0.26900
H1865       H  0.76922968  0.42440484  0.67153827     0.12100
H1866       H  0.79500892  0.38413163  0.69550116     0.13200
H1867       H  0.62230074  0.33037802  0.68687369     0.12300
H1868       H  0.64841705  0.28888601  0.71029349     0.11500
H1869       H  0.69866148  0.26652774  0.72645513     0.16900
H1870       H  0.79197201  0.32796301  0.71765196     0.12800
H1871       H  0.72251309  0.43451484  0.65081753     0.15700
H1872       H  0.62858714  0.37610110  0.66120728     0.15500
C1873       C  0.60566670  0.44043409  0.92363421    -0.17400
C1874       C  0.58936919  0.41944471  0.91048796    -0.19600
C1875       C  0.59147924  0.37648636  0.90988077     0.21100
C1876       C  0.60935465  0.35430769  0.92294178    -0.02500
C1877       C  0.62597113  0.37555476  0.93619502    -0.05600
C1878       C  0.62442083  0.41882922  0.93637795     0.21300
C1879       C  0.64492064  0.35359288  0.94891883     0.19500
C1880       C  0.64607978  0.31052018  0.94860447    -0.17100
C1881       C  0.62969446  0.28945065  0.93542993    -0.19300
C1882       C  0.61178399  0.31107015  0.92233277     0.21000
C1883       C  0.59775678  0.29051532  0.90815608    -0.32300
C1884       C  0.58130552  0.31274886  0.89467231     0.01700
C1885       C  0.57739430  0.35554578  0.89595770    -0.23600
C1886       C  0.64217951  0.43982826  0.94906223    -0.28200
C1887       C  0.66189758  0.41831502  0.96150369     0.07400
C1888       C  0.66283944  0.37512722  0.96148266    -0.26900
H1889       H  0.60411820  0.47365934  0.92363536     0.12100
H1890       H  0.57568887  0.43688633  0.90056345     0.13200
H1891       H  0.66023822  0.29310637  0.95835846     0.12300
H1892       H  0.63164380  0.25627266  0.93526317     0.11500
H1893       H  0.60157019  0.25764503  0.90700037     0.16900
H1894       H  0.56480527  0.37278452  0.88557026     0.12800
H1895       H  0.64109189  0.47308888  0.94904824     0.15700
H1896       H  0.67762534  0.35831559  0.97117246     0.15500
C1897       C  0.62462592  0.16812176  0.79467158    -0.17400
C1898       C  0.59753605  0.17320995  0.80650451    -0.19600
C1899       C  0.60313080  0.18147270  0.82428055     0.21100
C1900       C  0.63638078  0.18160949  0.83041290    -0.02500
C1901       C  0.66369932  0.17792904  0.81837076    -0.05600
C1902       C  0.65779192  0.17204112  0.80033097     0.21300
C1903       C  0.69674149  0.18323099  0.82420462     0.19500
C1904       C  0.70243783  0.18856324  0.84217512    -0.17100
C1905       C  0.67550008  0.19111556  0.85414681    -0.19300
C1906       C  0.64235428  0.18931347  0.84829488     0.21000
C1907       C  0.61538321  0.20016821  0.85951926    -0.32300
C1908       C  0.58331050  0.20807799  0.85256886     0.01700
C1909       C  0.57660559  0.19447587  0.83549922    -0.23600
C1910       C  0.68492762  0.17266149  0.78819998    -0.28200
C1911       C  0.71753571  0.18100215  0.79384275     0.07400
C1912       C  0.72328850  0.18533625  0.81189282    -0.26900
H1913       H  0.61955219  0.16324948  0.78092180     0.12100
H1914       H  0.57217528  0.17256067  0.80157506     0.13200
H1915       H  0.72768189  0.19221874  0.84689540     0.12300
H1916       H  0.68054113  0.19702234  0.86781969     0.11500
H1917       H  0.62065266  0.21041675  0.87266940     0.16900
H1918       H  0.55186063  0.20026800  0.83009895     0.12800
H1919       H  0.68034409  0.16952411  0.77428076     0.15700
H1920       H  0.74839601  0.19145015  0.81629850     0.15500
C1921       C  0.02125255  0.17736360  0.97485748    -0.17400
C1922       C  0.02822736  0.20816872  0.96244678    -0.19600
C1923       C  0.53341771  0.20089667  0.94574171     0.21100
C1924       C  0.53745562  0.15942130  0.94102746    -0.02500
C1925       C  0.03384713  0.12539679  0.95295487    -0.05600
C1926       C  0.02296505  0.13598112  0.97009418     0.21300
C1927       C  0.03589945  0.08384240  0.94807517     0.19500
C1928       C  0.04601408  0.07377621  0.93087335    -0.17100
C1929       C  0.55036381  0.10782101  0.91906958    -0.19300
C1930       C  0.54594528  0.14926508  0.92348774     0.21000
C1931       C  0.54667502  0.18041530  0.91043387    -0.32300
C1932       C  0.53876123  0.22129732  0.91483664     0.01700
C1933       C  0.53547803  0.23160162  0.93270781    -0.23600
C1934       C  0.01225772  0.10525122  0.98186020    -0.28200
C1935       C  0.01274004  0.06402765  0.97680087     0.07400
C1936       C  0.02592026  0.05334351  0.96016361    -0.26900
H1937       H  0.01331366  0.18597713  0.98799572     0.12100
H1938       H  0.02529520  0.23997154  0.96624575     0.13200
H1939       H  0.04797140  0.04199226  0.92694502     0.12300
H1940       H  0.55717582  0.09937126  0.90574231     0.11500
H1941       H  0.54951441  0.17223832  0.89672177     0.16900
H1942       H  0.53018444  0.26326414  0.93620639     0.12800
H1943       H  0.00257143  0.11351717  0.99474708     0.15700
H1944       H  0.02646986  0.02150986  0.95622572     0.15500
C1945       C  0.94436088  0.17398743  0.81238623    -0.17400
C1946       C  0.96791380  0.18004840  0.82554250    -0.19600
C1947       C  0.96964485  0.21813193  0.83379580     0.21100
C1948       C  0.94874114  0.25109856  0.82798681    -0.02500
C1949       C  0.92493159  0.24496125  0.81471668    -0.05600
C1950       C  0.92211824  0.20591004  0.80722293     0.21300
C1951       C  0.90281038  0.27735311  0.80961455     0.19500
C1952       C  0.90568493  0.31599764  0.81724436    -0.17100
C1953       C  0.92903356  0.32198016  0.83046292    -0.19300
C1954       C  0.95001596  0.28946074  0.83624769     0.21000
C1955       C  0.97017877  0.29368454  0.85104624    -0.32300
C1956       C  0.98869538  0.25996644  0.85785436     0.01700
C1957       C  0.98978785  0.22292134  0.84863870    -0.23600
C1958       C  0.89636012  0.19911542  0.79521228    -0.28200
C1959       C  0.87337023  0.23088195  0.79056241     0.07400
C1960       C  0.87739615  0.27018246  0.79749299    -0.26900
H1961       H  0.94284034  0.14391536  0.80663567     0.12100
H1962       H  0.98392223  0.15447909  0.82971983     0.13200
H1963       H  0.88910036  0.34129987  0.81339205     0.12300
H1964       H  0.92983551  0.35168833  0.83660395     0.11500
H1965       H  0.47865101  0.32472299  0.85411728     0.16900
H1966       H  0.00360181  0.19669125  0.85404932     0.12800
H1967       H  0.89375664  0.16884853  0.78977883     0.15700
H1968       H  0.86001390  0.29491664  0.79390807     0.15500
loop_ 
_geom_bond_atom_site_label_1 
_geom_bond_atom_site_label_2 
_geom_bond_distance 
_geom_bond_site_symmetry_2 
_ccdc_geom_bond_type 
N1            C5   1.366   1_455  A
N1            C2   1.361       .  A
N1            N8   1.416       .  S
C2            C3   1.385   1_455  A
C2          C948   1.479       .  S
C3          C988   1.363       .  A
C3          H990   1.082       .  S
C4          C987   1.363       .  A
C4          C989   1.376       .  A
C4            H7   1.083       .  S
C5          C988   1.377       .  A
C5         C1956   1.481       .  S
H6          C987   1.082       .  S
N8           C12   1.360       .  A
N8            C9   1.362       .  A
C9           C10   1.376       .  A
C9          C900   1.481       .  S
C10          C11   1.366       .  A
C10          H13   1.082       .  S
C11          C12   1.386       .  A
C11          H14   1.083       .  S
C12         C924   1.475       .  S
In15         O17   2.243       .  S
In15         O18   2.254       .  S
In15         O26   2.262       .  S
In15         O20   2.281       .  S
In15         O22   2.259       .  S
In15         O23   2.277       .  S
In15         O24   2.246       .  S
In15         O27   2.229       .  S
C16         C975   1.485       .  S
C16          O22   1.266       .  A
C16          O24   1.263       .  A
O17          C25   1.261       .  A
O18          C25   1.263       .  A
C19         C876   1.488       .  S
C19          O26   1.257       .  A
C19          O20   1.260       .  A
C21         C852   1.477       .  S
C21          O23   1.261       .  A
C21          O27   1.258       .  A
C25         C927   1.474       .  S
N28          C32   1.368       .  A
N28          C29   1.366       .  A
N28          N35   1.422       .  S
C29          C30   1.376       .  A
C29         C804   1.482       .  S
C30          C31   1.362       .  A
C30          H33   1.082       .  S
C31          C32   1.386       .  A
C31          H34   1.083       .  S
C32         C831   1.483       .  S
N35          C39   1.367       .  A
N35          C36   1.368       .  A
C36          C37   1.386       .  A
C36         C759   1.484       .  S
C37          C38   1.360       .  A
C37          H40   1.083       .  S
C38          C39   1.377       .  A
C38          H41   1.082       .  S
C39         C783   1.483       .  S
In42         O44   2.245       .  S
In42         O45   2.242       .  S
In42         O53   2.244       .  S
In42         O47   2.290       .  S
In42         O49   2.283       .  S
In42         O50   2.281       .  S
In42         O51   2.255       .  S
In42         O54   2.259       .  S
C43         C828   1.483       .  S
C43          O49   1.263       .  A
C43          O51   1.258       .  A
O44          C52   1.265       .  A
O45          C52   1.266       .  A
C46         C732   1.486       .  S
C46          O53   1.258       .  A
C46          O47   1.264       .  A
C48         C708   1.489       .  S
C48          O50   1.261       .  A
C48          O54   1.258       .  A
C52         C780   1.480       .  S
N55          C59   1.361       .  A
N55          C56   1.359       .  A
N55          N62   1.420       .  S
C56          C57   1.391       .  A
C56         C879   1.488       .  S
C57          C58   1.374       .  A
C57          H60   1.083       .  S
C58          C59   1.376       .  A
C58          H61   1.082       .  S
C59         C687   1.490       .  S
N62          C66   1.360       .  A
N62          C63   1.361       .  A
C63          C64   1.392       .  A
C63         C639   1.488       .  S
C64          C65   1.371       .  A
C64          H67   1.083       .  S
C65          C66   1.374       .  A
C65          H68   1.082       .  S
C66         C660   1.482       .  S
In69         O71   2.249       .  S
In69         O72   2.257       .  S
In69         O80   2.217       .  S
In69         O74   2.308       .  S
In69         O76   2.279       .  S
In69         O77   2.255       .  S
In69         O78   2.236       .  S
In69         O81   2.258       .  S
C70         C684   1.482       .  S
C70          O76   1.265       .  A
C70          O78   1.257       .  A
O71          C79   1.263       .  A
O72          C79   1.264       .  A
C73         C612   1.484       .  S
C73          O80   1.254       .  A
C73          O74   1.265       .  A
C75        C1647   1.477       .  S
C75          O77   1.261       .  A
C75          O81   1.260       .  A
C79         C756   1.483       .  S
N82          C86   1.369       .  A
N82          C83   1.365       .  A
N82          N89   1.420       .  S
C83          C84   1.386       .  A
C83         C564   1.483       .  S
C84          C85   1.362       .  A
C84          H87   1.083       .  S
C85          C86   1.377       .  A
C85          H88   1.083       .  S
C86         C588   1.484       .  S
N89          C93   1.365       .  A
N89          C90   1.364       .  A
C90          C91   1.377       .  A
C90         C516   1.487       .  S
C91          C92   1.363       .  A
C91          H94   1.082       .  S
C92          C93   1.386       .  A
C92          H95   1.083       .  S
C93         C543   1.478       .  S
In96         O98   2.259       .  S
In96         O99   2.248       .  S
In96        O107   2.259       .  S
In96        O101   2.291       .  S
In96        O103   2.271       .  S
In96        O104   2.291       .  S
In96        O105   2.268       .  S
In96        O108   2.263       .  S
C97         C540   1.487   1_455  S
C97         O103   1.263       .  A
C97         O105   1.260       .  A
O98         C106   1.265       .  A
O99         C106   1.265       .  A
C100        C636   1.488       .  S
C100        O107   1.257       .  A
C100        O101   1.261       .  A
C102        C492   1.489       .  S
C102        O104   1.260       .  A
C102        O108   1.256       .  A
C106        C591   1.486       .  S
N109        C113   1.363       .  A
N109        C110   1.360       .  A
N109        N116   1.419       .  S
C110        C111   1.389       .  A
C110        C444   1.486       .  S
C111        C112   1.368       .  A
C111        H114   1.083       .  S
C112        C113   1.379       .  A
C112        H115   1.081       .  S
C113        C468   1.497       .  S
N116        C120   1.361   1_565  A
N116        C117   1.360   1_565  A
C117        C118   1.388       .  A
C117        C711   1.487       .  S
C118        C119   1.373       .  A
C118        H121   1.083       .  S
C119        C120   1.377       .  A
C119        H122   1.082       .  S
C120        C420   1.486   1_545  S
In123       O125   2.249   1_554  S
In123       O126   2.271   1_565  S
In123       O134   2.227   1_554  S
In123       O128   2.275   1_554  S
In123       O130   2.270       .  S
In123       O131   2.273   1_565  S
In123       O132   2.235       .  S
In123       O135   2.232       .  S
C124       C1407   1.470       .  S
C124        O130   1.264       .  A
C124        O132   1.256       .  A
O125        C133   1.260   1_565  A
O126        C133   1.266   1_554  A
C127        C519   1.488       .  S
C127        O134   1.264       .  A
C127        O128   1.268       .  A
C129        C471   1.483       .  S
C129        O131   1.267   1_565  A
C129        O135   1.263       .  A
C133        C951   1.485       .  S
N136        C140   1.360       .  A
N136        C137   1.358       .  A
N136        N143   1.420       .  S
C137       C1122   1.389       .  A
C137        C735   1.484       .  S
C138        C139   1.371       .  A
C138       C1121   1.390       .  A
C138        H141   1.083       .  S
C139       C1124   1.379       .  A
C139        H142   1.082       .  S
C140       C1123   1.378       .  A
C140       C1380   1.489       .  S
N143        C147   1.357       .  A
N143        C144   1.356       .  A
C144        C145   1.392       .  A
C144        C348   1.482       .  S
C145        C146   1.374       .  A
C145        H148   1.083       .  S
C146        C147   1.374       .  A
C146        H149   1.082       .  S
C147        C375   1.477       .  S
In150       O152   2.232   1_554  S
In150       O153   2.256   1_554  S
In150       O161   2.233   1_554  S
In150       O155   2.278   1_554  S
In150       O157   2.259       .  S
In150       O158   2.275       .  S
In150       O159   2.240       .  S
In150       O162   2.229       .  S
C151        C399   1.482       .  S
C151        O157   1.270       .  A
C151        O159   1.263       .  A
O152        C160   1.265       .  A
O153        C160   1.270       .  A
C154        C567   1.487       .  S
C154        O161   1.260       .  A
C154        O155   1.268       .  A
C156        C372   1.477       .  S
C156        O158   1.266       .  A
C156        O162   1.259       .  A
C160        C903   1.486       .  S
N163        C167   1.363       .  A
N163        C164   1.357       .  A
N163        N170   1.419       .  S
C164        C165   1.388       .  A
C164        C615   1.484       .  S
C165        C166   1.372       .  A
C165        H168   1.083       .  S
C166        C167   1.380       .  A
C166       H1153   1.081       .  S
C167        C324   1.499       .  S
H169       C1150   1.081       .  S
N170        C174   1.355       .  A
N170        C171   1.357       .  A
C171        C172   1.391       .  A
C171        C276   1.484       .  S
C172        C173   1.375       .  A
C172        H175   1.083       .  S
C173        C174   1.375       .  A
C173        H176   1.082       .  S
C174        C300   1.475       .  S
In177       O179   2.239       .  S
In177       O180   2.253       .  S
In177       O188   2.247       .  S
In177       O182   2.281       .  S
In177       O184   2.230       .  S
In177       O185   2.263       .  S
In177       O186   2.263       .  S
In177       O189   2.225       .  S
C178        C327   1.478       .  S
C178        O184   1.261       .  A
C178        O186   1.267       .  A
O179        C187   1.260       .  A
O180        C187   1.263       .  A
C181        C447   1.485       .  S
C181        O188   1.258       .  A
C181        O182   1.263       .  A
C183        C351   1.476       .  S
C183        O185   1.264       .  A
C183        O189   1.261       .  A
C187        C303   1.472       .  S
N190        C194   1.359       .  A
N190        C191   1.360       .  A
N190        N197   1.419       .  S
C191       C1176   1.391       .  A
C191        C495   1.488       .  S
C192        C193   1.371       .  A
C192       C1175   1.388       .  A
C192        H195   1.083       .  S
C193       C1178   1.380       .  A
C193        H196   1.081       .  S
C194       C1177   1.374       .  A
C194       C1236   1.486       .  S
N197        C201   1.361   1_565  A
N197        C198   1.356   1_565  A
C198        C199   1.390       .  A
C198        C855   1.482       .  S
C199        C200   1.371       .  A
C199        H202   1.083       .  S
C200        C201   1.376       .  A
C200        H203   1.082       .  S
C201        C228   1.486   1_545  S
In204       O206   2.220       .  S
In204       O207   2.265       .  S
In204       O215   2.230       .  S
In204       O209   2.266       .  S
In204       O211   2.276       .  S
In204       O212   2.270       .  S
In204       O213   2.227       .  S
In204       O216   2.229       .  S
C205        C231   1.474       .  S
C205        O211   1.266       .  A
C205        O213   1.259       .  A
O206        C214   1.262       .  A
O207        C214   1.268       .  A
C208        C279   1.484       .  S
C208        O215   1.264       .  A
C208        O209   1.268       .  A
C210        C255   1.477       .  S
C210        O212   1.267       .  A
C210        O216   1.261       .  A
C214        C807   1.482   1_565  S
C217        C218   1.402       .  A
C217        C222   1.404       .  A
C217        H233   1.083       .  S
C218        C219   1.405       .  A
C218        H234   1.083       .  S
C219        C229   1.408       .  A
C219        C220   1.412       .  A
C220        C226   1.412       .  A
C220        C221   1.415       .  A
C221        C223   1.411       .  A
C221        C222   1.414       .  A
C222        C230   1.410       .  A
C223        C232   1.403       .  A
C223        C224   1.403       .  A
C224        C225   1.399       .  A
C224        H235   1.084       .  S
C225        C226   1.403       .  A
C225        H236   1.084   1_565  S
C226        C227   1.403       .  A
C227        C228   1.405       .  A
C227        H237   1.084   1_565  S
C228        C229   1.408       .  A
C229        H238   1.084       .  S
C230        C231   1.405       .  A
C230        H239   1.084       .  S
C231        C232   1.404       .  A
C232        H240   1.085       .  S
C241        C242   1.402   1_545  A
C241        C246   1.404   1_545  A
C241        H257   1.084       .  S
C242        C243   1.405       .  A
C242        H258   1.083   1_565  S
C243        C253   1.408   1_455  A
C243        C244   1.411       .  A
C244        C250   1.411   1_455  A
C244        C245   1.415       .  A
C245        C247   1.411       .  A
C245        C246   1.413       .  A
C246        C254   1.409       .  A
C247        C256   1.403       .  A
C247        C248   1.403       .  A
C248        C249   1.399       .  A
C248        H259   1.084       .  S
C249        C250   1.404   1_455  A
C249        H260   1.084   1_455  S
C250        C251   1.404       .  A
C251        C252   1.409       .  A
C251        H261   1.083       .  S
C252        C253   1.411       .  A
C252       C1178   1.497       .  S
C253       H1246   1.082       .  S
C254        C255   1.405       .  A
C254        H263   1.084       .  S
C255        C256   1.405       .  A
C256        H264   1.085       .  S
H262       C1237   1.085       .  S
C265        C266   1.402       .  A
C265        C270   1.405       .  A
C265        H281   1.083       .  S
C266        C267   1.405       .  A
C266        H282   1.084       .  S
C267        C277   1.407       .  A
C267        C268   1.411       .  A
C268        C274   1.412       .  A
C268        C269   1.416       .  A
C269        C271   1.411       .  A
C269        C270   1.413       .  A
C270        C278   1.410       .  A
C271        C280   1.403       .  A
C271        C272   1.404       .  A
C272        C273   1.399       .  A
C272        H283   1.084       .  S
C273        C274   1.403       .  A
C273        H284   1.083       .  S
C274        C275   1.405       .  A
C275        C276   1.406       .  A
C275        H285   1.084       .  S
C276        C277   1.409       .  A
C277        H286   1.085       .  S
C278        C279   1.407       .  A
C278        H287   1.084       .  S
C279        C280   1.407       .  A
C280        H288   1.085       .  S
C289        C290   1.399       .  A
C289        C294   1.404       .  A
C289        H305   1.083       .  S
C290        C291   1.403       .  A
C290        H306   1.084       .  S
C291        C301   1.404       .  A
C291        C292   1.413       .  A
C292        C298   1.411       .  A
C292        C293   1.412       .  A
C293        C295   1.413       .  A
C293        C294   1.412       .  A
C294        C302   1.403       .  A
C295        C304   1.404       .  A
C295        C296   1.404       .  A
C296        C297   1.400       .  A
C296        H307   1.084       .  S
C297        C298   1.404       .  A
C297        H308   1.084       .  S
C298        C299   1.402       .  A
C299        C300   1.404       .  A
C299        H309   1.085       .  S
C300        C301   1.402       .  A
C301        H310   1.084       .  S
C302        C303   1.404       .  A
C302        H311   1.084       .  S
C303        C304   1.405       .  A
C304        H312   1.085       .  S
C313        C314   1.400       .  A
C313        C318   1.404       .  A
C313        H329   1.083       .  S
C314        C315   1.404       .  A
C314       H1314   1.084       .  S
C315        C316   1.411       .  A
C315       C1309   1.406       .  A
C316        C322   1.410       .  A
C316        C317   1.414       .  A
C317        C319   1.413       .  A
C317        C318   1.411       .  A
C318        C326   1.404       .  A
C319        C328   1.406       .  A
C319        C320   1.403       .  A
C320        C321   1.400       .  A
C320        H331   1.083       .  S
C321        C322   1.404       .  A
C321        H332   1.084       .  S
C322        C323   1.404       .  A
C323       C1308   1.410       .  A
C323        H333   1.082       .  S
C324        C325   1.411       .  A
C324       C1307   1.410       .  A
C325       C1299   1.406       .  A
C325        H334   1.084       .  S
C326        C327   1.407       .  A
C326        H335   1.084       .  S
C327        C328   1.405       .  A
C328        H336   1.084       .  S
H330       C1298   1.084       .  S
C337        C338   1.401       .  A
C337        C342   1.404       .  A
C337        H353   1.083       .  S
C338        C339   1.404       .  A
C338        H354   1.084       .  S
C339        C349   1.403       .  A
C339        C340   1.410       .  A
C340        C346   1.412       .  A
C340        C341   1.412       .  A
C341        C343   1.410       .  A
C341        C342   1.413       .  A
C342        C350   1.407       .  A
C343        C352   1.399       .  A
C343        C344   1.403       .  A
C344        C345   1.397       .  A
C344        H355   1.084       .  S
C345        C346   1.403       .  A
C345        H356   1.083       .  S
C346        C347   1.402       .  A
C347        C348   1.405       .  A
C347        H357   1.084       .  S
C348        C349   1.409       .  A
C349        H358   1.084       .  S
C350        C351   1.406       .  A
C350        H359   1.084       .  S
C351        C352   1.405       .  A
C352        H360   1.085       .  S
C361        C362   1.402       .  A
C361        C366   1.404       .  A
C361        H377   1.084       .  S
C362        C363   1.405       .  A
C362        H378   1.084       .  S
C363        C373   1.409       .  A
C363        C364   1.413       .  A
C364        C370   1.412       .  A
C364        C365   1.414       .  A
C365        C367   1.412       .  A
C365        C366   1.413       .  A
C366        C374   1.408       .  A
C367        C376   1.401       .  A
C367        C368   1.403       .  A
C368        C369   1.398       .  A
C368        H379   1.083       .  S
C369        C370   1.403       .  A
C369        H380   1.084       .  S
C370        C371   1.403       .  A
C371        C372   1.404       .  A
C371        H381   1.085       .  S
C372        C373   1.407       .  A
C373        H382   1.084       .  S
C374        C375   1.405       .  A
C374        H383   1.084       .  S
C375        C376   1.403       .  A
C376        H384   1.085       .  S
C385        C386   1.402       .  A
C385        C390   1.405       .  A
C385        H401   1.083       .  S
C386        C387   1.405       .  A
C386        H402   1.084       .  S
C387        C397   1.408   1_455  A
C387        C388   1.411       .  A
C388        C394   1.410       .  A
C388        C389   1.416       .  A
C389        C391   1.413       .  A
C389        C390   1.411       .  A
C390        C398   1.408       .  A
C391        C400   1.406       .  A
C391        C392   1.403       .  A
C392        C393   1.400       .  A
C392        H403   1.083       .  S
C393        C394   1.404       .  A
C393        H404   1.084       .  S
C394        C395   1.404       .  A
C395        C396   1.408   1_455  A
C395       H1389   1.082       .  S
C396        C397   1.412       .  A
C396       C1124   1.500       .  S
C397        H406   1.083       .  S
C398        C399   1.409       .  A
C398        H407   1.084       .  S
C399        C400   1.404       .  A
C400        H408   1.084       .  S
H405       C1379   1.083       .  S
C409        C410   1.401       .  A
C409        C414   1.404       .  A
C409        H425   1.083       .  S
C410        C411   1.404       .  A
C410        H426   1.083       .  S
C411        C421   1.406       .  A
C411        C412   1.412       .  A
C412        C418   1.413       .  A
C412        C413   1.416       .  A
C413        C415   1.412       .  A
C413        C414   1.413       .  A
C414        C422   1.407       .  A
C415        C424   1.407       .  A
C415        C416   1.404       .  A
C416        C417   1.401       .  A
C416        H427   1.084       .  S
C417        C418   1.404       .  A
C417        H428   1.084       .  S
C418        C419   1.408       .  A
C419        C420   1.407       .  A
C419        H429   1.084       .  S
C420        C421   1.406       .  A
C421        H430   1.084   1_565  S
C422        C423   1.405       .  A
C422        H431   1.084       .  S
C423        C424   1.406       .  A
C423       C1108   1.477       .  S
C424       H1416   1.084       .  S
H432       C1408   1.085       .  S
C433        C434   1.401       .  A
C433        C438   1.404       .  A
C433        H449   1.084       .  S
C434        C435   1.405       .  A
C434        H450   1.083       .  S
C435        C445   1.407       .  A
C435        C436   1.411       .  A
C436        C442   1.412       .  A
C436        C437   1.416       .  A
C437        C439   1.411       .  A
C437        C438   1.413       .  A
C438        C446   1.409       .  A
C439        C448   1.405       .  A
C439        C440   1.404       .  A
C440        C441   1.400       .  A
C440        H451   1.083       .  S
C441        C442   1.403       .  A
C441        H452   1.084       .  S
C442        C443   1.405       .  A
C443        C444   1.408       .  A
C443        H453   1.085       .  S
C444        C445   1.409       .  A
C445        H454   1.084       .  S
C446        C447   1.407       .  A
C446        H455   1.084       .  S
C447        C448   1.408       .  A
C448        H456   1.084       .  S
C457        C458   1.397       .  A
C457        C462   1.402       .  A
C457        H473   1.083       .  S
C458        C459   1.403       .  A
C458        H474   1.084       .  S
C459        C469   1.401       .  A
C459        C460   1.410       .  A
C460        C466   1.411       .  A
C460        C461   1.416       .  A
C461        C463   1.413       .  A
C461        C462   1.411       .  A
C462        C470   1.401       .  A
C463        C472   1.412       .  A
C463        C464   1.406   1_565  A
C464        C465   1.405       .  A
C464        H475   1.084       .  S
C465        C466   1.406   1_545  A
C465        H476   1.083       .  S
C466        C467   1.412       .  A
C467        C468   1.412       .  A
C467        H477   1.083       .  S
C468        C469   1.408       .  A
C469        H478   1.083       .  S
C470        C471   1.405       .  A
C470        H479   1.084       .  S
C471        C472   1.409       .  A
C472        H480   1.085   1_565  S
C481        C482   1.402       .  A
C481        C486   1.405   1_455  A
C481        H497   1.083       .  S
C482        C483   1.405       .  A
C482        H498   1.084       .  S
C483        C493   1.410       .  A
C483        C484   1.413   1_455  A
C484        C490   1.411       .  A
C484        C485   1.417       .  A
C485        C486   1.412       .  A
C485       C1471   1.412       .  A
C486        C494   1.408       .  A
C487        C496   1.406       .  A
C487        C488   1.404       .  A
C487       C1469   1.412       .  A
C488        C489   1.399       .  A
C488        H499   1.083       .  S
C489       C1474   1.403       .  A
C489        H500   1.084       .  S
C490        C491   1.405       .  A
C490       C1473   1.404       .  A
C491        C492   1.409   1_655  A
C491       H1485   1.084       .  S
C492        C493   1.409       .  A
C493        H502   1.084       .  S
C494       C1479   1.409       .  A
C494        H503   1.084       .  S
C495        C496   1.407       .  A
C495       C1478   1.410       .  A
C496        H504   1.084       .  S
H501       C1475   1.085       .  S
C505        C506   1.397       .  A
C505        C510   1.402       .  A
C505        H521   1.084       .  S
C506        C507   1.402       .  A
C506        H522   1.083       .  S
C507        C517   1.401       .  A
C507        C508   1.411       .  A
C508        C514   1.412       .  A
C508        C509   1.416       .  A
C509        C511   1.412       .  A
C509        C510   1.411       .  A
C510        C518   1.401       .  A
C511        C520   1.413       .  A
C511        C512   1.406       .  A
C512        C513   1.405       .  A
C512        H523   1.084       .  S
C513        C514   1.406       .  A
C513        H524   1.084       .  S
C514        C515   1.412       .  A
C515        C516   1.410       .  A
C515        H525   1.084       .  S
C516        C517   1.405       .  A
C517        H526   1.084       .  S
C518        C519   1.406       .  A
C518        H527   1.084       .  S
C519        C520   1.411       .  A
C520        H528   1.084       .  S
C529        C530   1.402       .  A
C529        C534   1.404       .  A
C529        H545   1.084       .  S
C530        C531   1.405       .  A
C530        H546   1.083       .  S
C531        C541   1.408       .  A
C531        C532   1.412       .  A
C532        C538   1.412       .  A
C532        C533   1.415       .  A
C533        C535   1.411       .  A
C533        C534   1.412       .  A
C534        C542   1.408       .  A
C535        C544   1.403       .  A
C535        C536   1.404       .  A
C536        C537   1.399       .  A
C536        H547   1.083       .  S
C537        C538   1.403       .  A
C537       H1532   1.084       .  S
C538       C1523   1.405       .  A
C539        C540   1.409       .  A
C539       C1522   1.409       .  A
C539        H549   1.084   1_655  S
C540       C1525   1.407       .  A
C541       C1524   1.408       .  A
C541        H550   1.084       .  S
C542        C543   1.407       .  A
C542        H551   1.085       .  S
C543        C544   1.407       .  A
C544        H552   1.085       .  S
H548       C1521   1.084       .  S
C553        C554   1.400       .  A
C553        C558   1.405       .  A
C553        H569   1.083       .  S
C554        C555   1.403       .  A
C554        H570   1.083       .  S
C555        C565   1.408       .  A
C555        C556   1.414       .  A
C556        C562   1.410       .  A
C556        C557   1.415       .  A
C557        C559   1.414       .  A
C557        C558   1.410       .  A
C558        C566   1.404       .  A
C559        C568   1.410       .  A
C559        C560   1.404       .  A
C560        C561   1.401       .  A
C560        H571   1.083       .  S
C561        C562   1.405       .  A
C561        H572   1.084       .  S
C562        C563   1.404       .  A
C563        C564   1.409       .  A
C563        H573   1.085       .  S
C564        C565   1.405       .  A
C565        H574   1.084       .  S
C566        C567   1.409       .  A
C566        H575   1.084       .  S
C567        C568   1.408       .  A
C568        H576   1.084       .  S
C577        C578   1.403       .  A
C577        C582   1.405       .  A
C577        H593   1.084       .  S
C578        C579   1.405       .  A
C578        H594   1.084       .  S
C579        C589   1.410       .  A
C579        C580   1.413       .  A
C580        C586   1.411       .  A
C580        C581   1.416       .  A
C581        C583   1.412       .  A
C581        C582   1.412       .  A
C582        C590   1.409       .  A
C583        C592   1.404       .  A
C583        C584   1.403       .  A
C584        C585   1.399       .  A
C584        H595   1.084       .  S
C585        C586   1.404       .  A
C585        H596   1.083       .  S
C586        C587   1.404       .  A
C587        C588   1.406       .  A
C587        H597   1.084       .  S
C588        C589   1.407       .  A
C589        H598   1.084       .  S
C590        C591   1.410       .  A
C590        H599   1.084       .  S
C591        C592   1.406       .  A
C592        H600   1.084       .  S
C601        C602   1.403       .  A
C601        C606   1.406       .  A
C601        H617   1.084       .  S
C602        C603   1.405       .  A
C602        H618   1.084       .  S
C603        C613   1.413       .  A
C603        C604   1.415       .  A
C604       C1594   1.409       .  A
C604       C1589   1.415       .  A
C605        C607   1.413       .  A
C605       C1588   1.415       .  A
C605       C1590   1.411       .  A
C606        C614   1.407       .  A
C606       C1589   1.410       .  A
C607        C616   1.404       .  A
C607        C608   1.403       .  A
C608        C609   1.398       .  A
C608        H619   1.084       .  S
C609        C610   1.404       .  A
C609        H620   1.084       .  S
C610       C1588   1.409       .  A
C610       C1595   1.401       .  A
C611        C612   1.407       .  A
C611       C1594   1.398       .  A
C611       H1605   1.085       .  S
C612        C613   1.408       .  A
C613        H622   1.084       .  S
C614       C1599   1.411       .  A
C614        H623   1.085       .  S
C615        C616   1.405       .  A
C615       C1598   1.410       .  A
C616        H624   1.085       .  S
H621       C1595   1.085       .  S
C625        C626   1.400       .  A
C625        C630   1.404       .  A
C625        H641   1.084       .  S
C626        C627   1.404       .  A
C626        H642   1.083       .  S
C627        C637   1.406       .  A
C627        C628   1.411       .  A
C628        C634   1.413       .  A
C628        C629   1.417       .  A
C629        C631   1.411       .  A
C629        C630   1.412       .  A
C630        C638   1.406       .  A
C631        C640   1.408       .  A
C631        C632   1.404       .  A
C632        C633   1.402       .  A
C632        H643   1.083       .  S
C633        C634   1.405       .  A
C633        H644   1.084       .  S
C634        C635   1.411       .  A
C635        C636   1.408       .  A
C635        H645   1.084       .  S
C636        C637   1.409       .  A
C637        H646   1.084       .  S
C638        C639   1.409       .  A
C638        H647   1.085       .  S
C639        C640   1.409       .  A
C640        H648   1.084       .  S
C649        C650   1.402       .  A
C649        C654   1.404       .  A
C649        H665   1.084   1_455  S
C650        C651   1.405       .  A
C650        H666   1.083       .  S
C651        C661   1.407       .  A
C651        C652   1.412       .  A
C652        C658   1.413       .  A
C652        C653   1.414       .  A
C653        C655   1.411       .  A
C653        C654   1.413       .  A
C654        C662   1.408   1_455  A
C655        C664   1.404       .  A
C655        C656   1.404       .  A
C656        C657   1.399       .  A
C656        H667   1.083       .  S
C657        C658   1.403       .  A
C657        H668   1.084       .  S
C658        C659   1.404       .  A
C659        C660   1.404       .  A
C659        H669   1.085       .  S
C660        C661   1.406       .  A
C661        H670   1.084       .  S
C662        C663   1.405       .  A
C662       H1655   1.085       .  S
C663        C664   1.405   1_655  A
C663       C1059   1.476       .  S
C664        H672   1.084       .  S
H671       C1646   1.085       .  S
C673        C674   1.401       .  A
C673        C678   1.404       .  A
C673        H689   1.083       .  S
C674        C675   1.404       .  A
C674        H690   1.084       .  S
C675        C685   1.408       .  A
C675        C676   1.413       .  A
C676        C682   1.410       .  A
C676        C677   1.415       .  A
C677        C679   1.413       .  A
C677        C678   1.410       .  A
C678        C686   1.404       .  A
C679        C688   1.406       .  A
C679        C680   1.403       .  A
C680        C681   1.400       .  A
C680        H691   1.084       .  S
C681        C682   1.404       .  A
C681        H692   1.083       .  S
C682        C683   1.403       .  A
C683        C684   1.408       .  A
C683        H693   1.084       .  S
C684        C685   1.406       .  A
C685        H694   1.084       .  S
C686        C687   1.408       .  A
C686        H695   1.083       .  S
C687        C688   1.407       .  A
C688        H696   1.084       .  S
C697        C698   1.400       .  A
C697        C702   1.404       .  A
C697        H713   1.083       .  S
C698        C699   1.404       .  A
C698        H714   1.084       .  S
C699        C709   1.406       .  A
C699        C700   1.411       .  A
C700        C706   1.412       .  A
C700        C701   1.417       .  A
C701        C703   1.412       .  A
C701        C702   1.411       .  A
C702        C710   1.405       .  A
C703        C712   1.410       .  A
C703        C704   1.405       .  A
C704        C705   1.403       .  A
C704        H715   1.084       .  S
C705        C706   1.405       .  A
C705        H716   1.083       .  S
C706        C707   1.410       .  A
C707        C708   1.409       .  A
C707        H717   1.084       .  S
C708        C709   1.408       .  A
C709        H718   1.085       .  S
C710        C711   1.408       .  A
C710        H719   1.084       .  S
C711        C712   1.409       .  A
C712        H720   1.084       .  S
C721        C722   1.402       .  A
C721        C726   1.405   1_455  A
C721        H737   1.084       .  S
C722        C723   1.405       .  A
C722        H738   1.083       .  S
C723        C733   1.410       .  A
C723        C724   1.413   1_455  A
C724        C730   1.411       .  A
C724        C725   1.416       .  A
C725        C726   1.411       .  A
C725       C1711   1.411       .  A
C726        C734   1.408       .  A
C727        C736   1.404       .  A
C727        C728   1.403       .  A
C727       C1709   1.412       .  A
C728        C729   1.399       .  A
C728        H739   1.084       .  S
C729       C1714   1.403       .  A
C729        H740   1.084       .  S
C730        C731   1.405   1_655  A
C730       C1713   1.404       .  A
C731        C732   1.408       .  A
C731       H1725   1.085   1_455  S
C732        C733   1.407       .  A
C733        H742   1.084       .  S
C734       C1719   1.410       .  A
C734        H743   1.084       .  S
C735        C736   1.406       .  A
C735       C1718   1.409       .  A
C736        H744   1.085       .  S
H741       C1715   1.085       .  S
C745        C746   1.400       .  A
C745        C750   1.404       .  A
C745        H761   1.083       .  S
C746        C747   1.404       .  A
C746        H762   1.083       .  S
C747        C757   1.405       .  A
C747        C748   1.411       .  A
C748        C754   1.412       .  A
C748        C749   1.415       .  A
C749        C751   1.410       .  A
C749        C750   1.413       .  A
C750        C758   1.408       .  A
C751        C760   1.404       .  A
C751        C752   1.404       .  A
C752        C753   1.400       .  A
C752        H763   1.084       .  S
C753        C754   1.404       .  A
C753        H764   1.083       .  S
C754        C755   1.407       .  A
C755        C756   1.408       .  A
C755        H765   1.084       .  S
C756        C757   1.407       .  A
C757        H766   1.084       .  S
C758        C759   1.406       .  A
C758        H767   1.084       .  S
C759        C760   1.410       .  A
C760        H768   1.086       .  S
C769        C770   1.402       .  A
C769        C774   1.404       .  A
C769        H785   1.084       .  S
C770        C771   1.405       .  A
C770        H786   1.084       .  S
C771        C781   1.409       .  A
C771        C772   1.411       .  A
C772        C778   1.412       .  A
C772        C773   1.415       .  A
C773        C775   1.411       .  A
C773        C774   1.413       .  A
C774        C782   1.408       .  A
C775        C784   1.402       .  A
C775        C776   1.403       .  A
C776        C777   1.399       .  A
C776        H787   1.084       .  S
C777        C778   1.403       .  A
C777        H788   1.084       .  S
C778       C1763   1.405       .  A
C779        C780   1.406       .  A
C779       C1762   1.403   1_455  A
C779        H789   1.085       .  S
C780       C1765   1.408   1_455  A
C781       C1764   1.410       .  A
C781       H1774   1.084       .  S
C782        C783   1.406       .  A
C782        H791   1.084       .  S
C783        C784   1.406       .  A
C784        H792   1.085       .  S
H790       C1765   1.084       .  S
C793        C794   1.402       .  A
C793        C798   1.405       .  A
C793        H809   1.083       .  S
C794        C795   1.404       .  A
C794        H810   1.084       .  S
C795        C805   1.407       .  A
C795        C796   1.412       .  A
C796        C802   1.412       .  A
C796        C797   1.413       .  A
C797        C799   1.411       .  A
C797        C798   1.413       .  A
C798        C806   1.409       .  A
C799        C808   1.400   1_545  A
C799        C800   1.403   1_545  A
C800        C801   1.397   1_565  A
C800        H811   1.084       .  S
C801        C802   1.403       .  A
C801        H812   1.083   1_545  S
C802        C803   1.401       .  A
C803        C804   1.405       .  A
C803        H813   1.084       .  S
C804        C805   1.406       .  A
C805        H814   1.084       .  S
C806        C807   1.408       .  A
C806        H815   1.084       .  S
C807        C808   1.407   1_545  A
C808        H816   1.085       .  S
C817        C818   1.401       .  A
C817        C822   1.405       .  A
C817        H833   1.083       .  S
C818        C819   1.404       .  A
C818        H834   1.084       .  S
C819        C829   1.407       .  A
C819        C820   1.412       .  A
C820        C826   1.413       .  A
C820        C821   1.417       .  A
C821        C823   1.412       .  A
C821        C822   1.412       .  A
C822        C830   1.408       .  A
C823        C832   1.407       .  A
C823        C824   1.404       .  A
C824        C825   1.401       .  A
C824        H835   1.084       .  S
C825        C826   1.404       .  A
C825        H836   1.083       .  S
C826        C827   1.409       .  A
C827        C828   1.406       .  A
C827        H837   1.084       .  S
C828        C829   1.407       .  A
C829        H838   1.085       .  S
C830        C831   1.408       .  A
C830        H839   1.084       .  S
C831        C832   1.409       .  A
C832        H840   1.085       .  S
C841        C842   1.396       .  A
C841        C846   1.402       .  A
C841        H857   1.083       .  S
C842        C843   1.402       .  A
C842        H858   1.084       .  S
C843        C853   1.398       .  A
C843        C844   1.410       .  A
C844        C850   1.413       .  A
C844        C845   1.414       .  A
C845        C847   1.411       .  A
C845        C846   1.412       .  A
C846        C854   1.401       .  A
C847        C856   1.408       .  A
C847        C848   1.406       .  A
C848        C849   1.403       .  A
C848        H859   1.084   1_545  S
C849        C850   1.405       .  A
C849        H860   1.084       .  S
C850        C851   1.410       .  A
C851        C852   1.407       .  A
C851        H861   1.084       .  S
C852        C853   1.404       .  A
C853        H862   1.085       .  S
C854        C855   1.405       .  A
C854        H863   1.085       .  S
C855        C856   1.410       .  A
C856        H864   1.084   1_545  S
C865        C866   1.401       .  A
C865        C870   1.404       .  A
C865        H881   1.084       .  S
C866        C867   1.404       .  A
C866        H882   1.084       .  S
C867        C877   1.409       .  A
C867        C868   1.412       .  A
C868        C874   1.411       .  A
C868        C869   1.417       .  A
C869        C871   1.412       .  A
C869        C870   1.412       .  A
C870        C878   1.408       .  A
C871        C880   1.407       .  A
C871        C872   1.404       .  A
C872        C873   1.401       .  A
C872        H883   1.083       .  S
C873        C874   1.404       .  A
C873        H884   1.084       .  S
C874        C875   1.407       .  A
C875        C876   1.409       .  A
C875        H885   1.084       .  S
C876        C877   1.408       .  A
C877        H886   1.084       .  S
C878        C879   1.409       .  A
C878        H887   1.084       .  S
C879        C880   1.408       .  A
C880        H888   1.084       .  S
C889        C890   1.399       .  A
C889        C894   1.404       .  A
C889        H905   1.084       .  S
C890        C891   1.403       .  A
C890        H906   1.084       .  S
C891        C901   1.404       .  A
C891        C892   1.412       .  A
C892        C898   1.412       .  A
C892        C893   1.415       .  A
C893        C895   1.412       .  A
C893        C894   1.411       .  A
C894        C902   1.404       .  A
C895        C904   1.407       .  A
C895        C896   1.404       .  A
C896        C897   1.401       .  A
C896        H907   1.084       .  S
C897        C898   1.404       .  A
C897        H908   1.083       .  S
C898        C899   1.406       .  A
C899        C900   1.406       .  A
C899        H909   1.084       .  S
C900        C901   1.405       .  A
C901        H910   1.084       .  S
C902        C903   1.409       .  A
C902        H911   1.085       .  S
C903        C904   1.407       .  A
C904        H912   1.084       .  S
C913        C914   1.399       .  A
C913        C918   1.404       .  A
C913        H929   1.083       .  S
C914        C915   1.403       .  A
C914        H930   1.084       .  S
C915        C925   1.405       .  A
C915        C916   1.412       .  A
C916        C922   1.412       .  A
C916        C917   1.413       .  A
C917        C919   1.412       .  A
C917        C918   1.412       .  A
C918        C926   1.404       .  A
C919        C928   1.404       .  A
C919        C920   1.403       .  A
C920        C921   1.399       .  A
C920        H931   1.084       .  S
C921        C922   1.404       .  A
C921        H932   1.084       .  S
C922        C923   1.403       .  A
C923        C924   1.407       .  A
C923        H933   1.085       .  S
C924        C925   1.405       .  A
C925        H934   1.084       .  S
C926        C927   1.404       .  A
C926        H935   1.084       .  S
C927        C928   1.405       .  A
C928        H936   1.085       .  S
C937        C938   1.399       .  A
C937        C942   1.403       .  A
C937        H953   1.083       .  S
C938       C1923   1.404       .  A
C938        H954   1.084       .  S
C939        C949   1.400       .  A
C939        C940   1.410       .  A
C939       C1922   1.403       .  A
C940        C946   1.413       .  A
C940       C1925   1.413       .  A
C941        C943   1.410       .  A
C941        C942   1.413       .  A
C941       C1924   1.415       .  A
C942        C950   1.407       .  A
C943        C952   1.407       .  A
C943        C944   1.405       .  A
C944       C1929   1.402       .  A
C944        H955   1.083       .  S
C945        C946   1.404       .  A
C945       C1928   1.401       .  A
C945        H956   1.083       .  S
C946        C947   1.408       .  A
C947        C948   1.406       .  A
C947        H957   1.084       .  S
C948        C949   1.406       .  A
C949        H958   1.085       .  S
C950        C951   1.406       .  A
C950        H959   1.084       .  S
C951        C952   1.409       .  A
C952        H960   1.084       .  S
C961        C962   1.400       .  A
C961        C966   1.404       .  A
C961        H977   1.084       .  S
C962        C963   1.403       .  A
C962        H978   1.084       .  S
C963        C973   1.406       .  A
C963        C964   1.413       .  A
C964        C970   1.412       .  A
C964        C965   1.415       .  A
C965        C967   1.412       .  A
C965        C966   1.411       .  A
C966        C974   1.406       .  A
C967        C976   1.406       .  A
C967        C968   1.404       .  A
C968        C969   1.400       .  A
C968        H979   1.084       .  S
C969        C970   1.404       .  A
C969        H980   1.083       .  S
C970        C971   1.405       .  A
C971        C972   1.406       .  A
C971       H1965   1.085       .  S
C972        C973   1.404       .  A
C972        C989   1.478       .  S
C973        H982   1.085       .  S
C974        C975   1.409       .  A
C974        H983   1.084       .  S
C975        C976   1.407       .  A
C976        H984   1.084       .  S
H981       C1955   1.085       .  S
N985        C989   1.366       .  A
N985        C986   1.365       .  A
N985        N992   1.420       .  S
C986        C987   1.387       .  A
C986       C1932   1.487       .  S
C988        H991   1.082       .  S
N992        C996   1.368       .  A
N992        C993   1.365       .  A
C993        C994   1.375       .  A
C993       C1884   1.484       .  S
C994        C995   1.362       .  A
C994        H997   1.082       .  S
C995        C996   1.388       .  A
C995        H998   1.083       .  S
C996       C1908   1.483       .  S
In999      O1001   2.255       .  S
In999      O1002   2.280       .  S
In999      O1010   2.259       .  S
In999      O1004   2.285       .  S
In999      O1006   2.260       .  S
In999      O1007   2.282       .  S
In999      O1008   2.258       .  S
In999      O1011   2.238       .  S
C1000      C1959   1.489       .  S
C1000      O1006   1.266       .  A
C1000      O1008   1.264       .  A
O1001      C1009   1.260       .  A
O1002      C1009   1.262       .  A
C1003      C1860   1.488       .  S
C1003      O1010   1.257       .  A
C1003      O1004   1.260       .  A
C1005      C1836   1.481       .  S
C1005      O1007   1.263       .  A
C1005      O1011   1.259       .  A
C1009      C1911   1.484       .  S
N1012      C1016   1.363       .  A
N1012      C1013   1.365       .  A
N1012      N1019   1.418       .  S
C1013      C1014   1.376       .  A
C1013      C1788   1.486       .  S
C1014      C1015   1.366       .  A
C1014      H1017   1.082       .  S
C1015      C1016   1.388       .  A
C1015      H1018   1.083       .  S
C1016      C1815   1.481       .  S
N1019      C1023   1.364       .  A
N1019      C1020   1.360       .  A
C1020      C1021   1.387       .  A
C1020      C1743   1.480       .  S
C1021      C1022   1.364       .  A
C1021      H1024   1.083       .  S
C1022      C1023   1.378       .  A
C1022      H1025   1.082       .  S
C1023      C1767   1.482       .  S
In1026     O1028   2.256       .  S
In1026     O1029   2.255       .  S
In1026     O1037   2.247       .  S
In1026     O1031   2.290       .  S
In1026     O1033   2.279       .  S
In1026     O1034   2.288       .  S
In1026     O1035   2.258       .  S
In1026     O1038   2.270       .  S
C1027      C1812   1.486       .  S
C1027      O1033   1.261       .  A
C1027      O1035   1.259       .  A
O1028      C1036   1.264       .  A
O1029      C1036   1.266       .  A
C1030      C1716   1.481       .  S
C1030      O1037   1.257       .  A
C1030      O1031   1.261       .  A
C1032      C1692   1.492       .  S
C1032      O1034   1.260       .  A
C1032      O1038   1.257       .  A
C1036      C1764   1.487       .  S
N1039      C1043   1.364       .  A
N1039      C1040   1.361       .  A
N1039      N1046   1.419       .  S
C1040      C1041   1.388       .  A
C1040      C1863   1.486       .  S
C1041      C1042   1.368       .  A
C1041      H1044   1.083       .  S
C1042      C1043   1.378       .  A
C1042      H1045   1.082       .  S
C1043      C1671   1.494       .  S
N1046      C1050   1.358       .  A
N1046      C1047   1.357       .  A
C1047      C1048   1.390       .  A
C1047      C1623   1.481       .  S
C1048      C1049   1.373       .  A
C1048      H1051   1.083       .  S
C1049      C1050   1.375       .  A
C1049      H1052   1.082       .  S
C1050      C1644   1.479       .  S
In1053     O1055   2.258       .  S
In1053     O1056   2.243       .  S
In1053     O1064   2.221       .  S
In1053     O1058   2.296       .  S
In1053     O1060   2.283       .  S
In1053     O1061   2.253       .  S
In1053     O1062   2.227       .  S
In1053     O1065   2.259       .  S
C1054      C1668   1.482       .  S
C1054      O1060   1.267       .  A
C1054      O1062   1.258       .  A
O1055      C1063   1.262       .  A
O1056      C1063   1.263       .  A
C1057      C1596   1.486       .  S
C1057      O1064   1.256       .  A
C1057      O1058   1.267       .  A
C1059      O1061   1.261       .  A
C1059      O1065   1.261       .  A
C1063      C1740   1.478       .  S
N1066      C1070   1.362       .  A
N1066      C1067   1.362       .  A
N1066      N1073   1.418       .  S
C1067      C1068   1.385       .  A
C1067      C1548   1.476       .  S
C1068      C1069   1.364       .  A
C1068      H1071   1.083       .  S
C1069      C1070   1.377       .  A
C1069      H1072   1.083       .  S
C1070      C1572   1.475       .  S
N1073      C1077   1.362       .  A
N1073      C1074   1.363       .  A
C1074      C1075   1.377       .  A
C1074      C1500   1.479       .  S
C1075      C1076   1.365       .  A
C1075      H1078   1.082       .  S
C1076      C1077   1.385       .  A
C1076      H1079   1.083       .  S
C1077      C1527   1.478       .  S
In1080     O1082   2.254       .  S
In1080     O1083   2.238       .  S
In1080     O1091   2.231       .  S
In1080     O1085   2.288       .  S
In1080     O1087   2.271       .  S
In1080     O1088   2.276       .  S
In1080     O1089   2.253       .  S
In1080     O1092   2.256       .  S
C1081      C1524   1.483       .  S
C1081      O1087   1.262       .  A
C1081      O1089   1.260       .  A
O1082      C1090   1.265       .  A
O1083      C1090   1.264       .  A
C1084      C1620   1.479       .  S
C1084      O1091   1.256       .  A
C1084      O1085   1.262       .  A
C1086      C1476   1.485       .  S
C1086      O1088   1.259       .  A
C1086      O1092   1.258       .  A
C1090      C1575   1.482       .  S
N1093      C1097   1.364       .  A
N1093      C1094   1.358       .  A
N1093      N1100   1.420   1_565  S
C1094      C1095   1.389       .  A
C1094      C1428   1.483       .  S
C1095      C1096   1.369       .  A
C1095      H1098   1.083       .  S
C1096      C1097   1.379       .  A
C1096      H1099   1.082       .  S
C1097      C1452   1.494       .  S
N1100      C1104   1.360       .  A
N1100      C1101   1.360       .  A
C1101      C1102   1.390       .  A
C1101      C1695   1.489       .  S
C1102      C1103   1.373       .  A
C1102      H1105   1.083       .  S
C1103      C1104   1.376       .  A
C1103      H1106   1.082       .  S
C1104      C1404   1.487       .  S
In1107     O1109   2.235   1_654  S
In1107     O1110   2.254   1_565  S
In1107     O1118   2.232   1_554  S
In1107     O1112   2.258   1_554  S
In1107     O1114   2.277   1_655  S
In1107     O1115   2.255   1_565  S
In1107     O1116   2.238       .  S
In1107     O1119   2.226       .  S
C1108      O1114   1.265       .  A
C1108      O1116   1.258   1_455  A
O1109      C1117   1.260   1_465  A
O1110      C1117   1.266   1_554  A
C1111      C1503   1.484       .  S
C1111      O1118   1.263       .  A
C1111      O1112   1.270       .  A
C1113      C1455   1.475       .  S
C1113      O1115   1.268   1_565  A
C1113      O1119   1.264       .  A
C1117      C1935   1.478   1_655  S
N1120      C1124   1.366       .  A
N1120      C1121   1.361       .  A
N1120      N1127   1.423       .  S
C1121      C1719   1.492       .  S
C1122      C1123   1.372       .  A
C1122      H1125   1.083       .  S
C1123      H1126   1.082       .  S
N1127      C1131   1.359       .  A
N1127      C1128   1.362       .  A
C1128      C1129   1.392       .  A
C1128      C1332   1.491       .  S
C1129      C1130   1.369       .  A
C1129      H1132   1.083       .  S
C1130      C1131   1.374       .  A
C1130      H1133   1.082       .  S
C1131      C1359   1.480       .  S
In1134     O1136   2.231       .  S
In1134     O1137   2.259       .  S
In1134     O1145   2.233       .  S
In1134     O1139   2.261       .  S
In1134     O1141   2.256   1_556  S
In1134     O1142   2.268   1_556  S
In1134     O1143   2.215   1_556  S
In1134     O1146   2.236   1_556  S
C1135      C1383   1.469       .  S
C1135      O1141   1.267       .  A
C1135      O1143   1.261       .  A
O1136      C1144   1.263       .  A
O1137      C1144   1.268       .  A
C1138      C1551   1.478       .  S
C1138      O1145   1.260       .  A
C1138      O1139   1.265       .  A
C1140      C1356   1.471       .  S
C1140      O1142   1.263       .  A
C1140      O1146   1.257       .  A
C1144      C1887   1.483       .  S
N1147      C1151   1.360       .  A
N1147      C1148   1.354       .  A
N1147      N1154   1.418       .  S
C1148      C1149   1.388       .  A
C1148      C1599   1.481       .  S
C1149      C1150   1.374       .  A
C1149      H1152   1.083       .  S
C1150      C1151   1.380       .  A
C1151      C1308   1.496       .  S
N1154      C1158   1.357       .  A
N1154      C1155   1.359       .  A
C1155      C1156   1.388       .  A
C1155      C1260   1.483       .  S
C1156      C1157   1.376       .  A
C1156      H1159   1.083       .  S
C1157      C1158   1.376       .  A
C1157      H1160   1.082       .  S
C1158      C1284   1.480       .  S
In1161     O1163   2.263       .  S
In1161     O1164   2.272       .  S
In1161     O1172   2.238       .  S
In1161     O1166   2.291       .  S
In1161     O1168   2.240       .  S
In1161     O1169   2.278       .  S
In1161     O1170   2.264       .  S
In1161     O1173   2.239       .  S
C1162      C1311   1.482       .  S
C1162      O1168   1.262       .  A
C1162      O1170   1.267       .  A
O1163      C1171   1.260       .  A
O1164      C1171   1.261       .  A
C1165      C1431   1.484       .  S
C1165      O1172   1.257       .  A
C1165      O1166   1.263       .  A
C1167      C1335   1.484       .  S
C1167      O1169   1.264       .  A
C1167      O1173   1.261       .  A
C1171      C1287   1.484       .  S
N1174      C1178   1.363       .  A
N1174      C1175   1.360       .  A
N1174      N1181   1.420       .  S
C1175      C1479   1.487       .  S
C1176      C1177   1.372       .  A
C1176      H1179   1.083       .  S
C1177      H1180   1.082       .  S
N1181      C1185   1.361   1_565  A
N1181      C1182   1.358   1_565  A
C1182      C1183   1.388       .  A
C1182      C1839   1.486       .  S
C1183      C1184   1.373       .  A
C1183      H1186   1.083       .  S
C1184      C1185   1.380       .  A
C1184      H1187   1.082       .  S
C1185      C1212   1.494   1_545  S
In1188     O1190   2.240       .  S
In1188     O1191   2.272   1_565  S
In1188     O1199   2.234       .  S
In1188     O1193   2.282       .  S
In1188     O1195   2.276       .  S
In1188     O1196   2.269       .  S
In1188     O1197   2.224       .  S
In1188     O1200   2.257       .  S
C1189      C1215   1.479       .  S
C1189      O1195   1.268       .  A
C1189      O1197   1.261       .  A
O1190      C1198   1.261       .  A
O1191      C1198   1.267   1_545  A
C1192      C1263   1.485       .  S
C1192      O1199   1.258       .  A
C1192      O1193   1.266       .  A
C1194      C1239   1.479       .  S
C1194      O1196   1.263       .  A
C1194      O1200   1.260       .  A
C1198      C1791   1.487   1_565  S
C1201      C1202   1.403       .  A
C1201      C1206   1.405       .  A
C1201      H1217   1.083       .  S
C1202      C1203   1.405       .  A
C1202      H1218   1.084       .  S
C1203      C1213   1.407       .  A
C1203      C1204   1.410       .  A
C1204      C1210   1.412       .  A
C1204      C1205   1.415       .  A
C1205      C1207   1.411       .  A
C1205      C1206   1.414       .  A
C1206      C1214   1.411       .  A
C1207      C1216   1.402       .  A
C1207      C1208   1.403   1_565  A
C1208      C1209   1.399       .  A
C1208      H1219   1.084       .  S
C1209      C1210   1.403   1_545  A
C1209      H1220   1.083       .  S
C1210      C1211   1.404   1_565  A
C1211      C1212   1.408   1_545  A
C1211      H1221   1.084       .  S
C1212      C1213   1.410       .  A
C1213      H1222   1.083       .  S
C1214      C1215   1.407       .  A
C1214      H1223   1.084       .  S
C1215      C1216   1.405       .  A
C1216      H1224   1.085       .  S
C1225      C1226   1.403       .  A
C1225      C1230   1.405       .  A
C1225      H1241   1.083   1_565  S
C1226      C1227   1.405       .  A
C1226      H1242   1.084       .  S
C1227      C1237   1.409       .  A
C1227      C1228   1.412       .  A
C1228      C1234   1.412       .  A
C1228      C1229   1.416       .  A
C1229      C1231   1.412       .  A
C1229      C1230   1.413       .  A
C1230      C1238   1.410       .  A
C1231      C1240   1.405       .  A
C1231      C1232   1.404       .  A
C1232      C1233   1.400       .  A
C1232      H1243   1.084       .  S
C1233      C1234   1.403       .  A
C1233      H1244   1.083       .  S
C1234      C1235   1.404       .  A
C1235      C1236   1.405       .  A
C1235      H1245   1.084       .  S
C1236      C1237   1.408       .  A
C1238      C1239   1.407       .  A
C1238      H1247   1.084       .  S
C1239      C1240   1.405       .  A
C1240      H1248   1.085       .  S
C1249      C1250   1.402       .  A
C1249      C1254   1.404       .  A
C1249      H1265   1.083       .  S
C1250      C1251   1.405       .  A
C1250      H1266   1.084       .  S
C1251      C1261   1.407       .  A
C1251      C1252   1.411       .  A
C1252      C1258   1.413       .  A
C1252      C1253   1.416       .  A
C1253      C1255   1.411       .  A
C1253      C1254   1.413       .  A
C1254      C1262   1.410       .  A
C1255      C1264   1.404       .  A
C1255      C1256   1.404       .  A
C1256      C1257   1.400       .  A
C1256      H1267   1.084       .  S
C1257      C1258   1.404       .  A
C1257      H1268   1.083       .  S
C1258      C1259   1.406       .  A
C1259      C1260   1.406       .  A
C1259      H1269   1.084       .  S
C1260      C1261   1.409       .  A
C1261      H1270   1.085       .  S
C1262      C1263   1.407       .  A
C1262      H1271   1.084       .  S
C1263      C1264   1.408       .  A
C1264      H1272   1.085       .  S
C1273      C1274   1.402       .  A
C1273      C1278   1.405       .  A
C1273      H1289   1.083       .  S
C1274      C1275   1.404       .  A
C1274      H1290   1.084       .  S
C1275      C1285   1.407       .  A
C1275      C1276   1.413       .  A
C1276      C1282   1.412       .  A
C1276      C1277   1.415       .  A
C1277      C1279   1.412       .  A
C1277      C1278   1.412       .  A
C1278      C1286   1.408       .  A
C1279      C1288   1.407       .  A
C1279      C1280   1.404       .  A
C1280      C1281   1.400       .  A
C1280      H1291   1.084       .  S
C1281      C1282   1.404       .  A
C1281      H1292   1.083       .  S
C1282      C1283   1.405       .  A
C1283      C1284   1.405       .  A
C1283      H1293   1.085       .  S
C1284      C1285   1.404       .  A
C1285      H1294   1.085       .  S
C1286      C1287   1.408       .  A
C1286      H1295   1.084       .  S
C1287      C1288   1.406       .  A
C1288      H1296   1.084       .  S
C1297      C1298   1.401   1_655  A
C1297      C1302   1.405       .  A
C1297      H1313   1.083       .  S
C1298      C1299   1.404       .  A
C1299      C1300   1.411   1_455  A
C1300      C1306   1.410       .  A
C1300      C1301   1.415       .  A
C1301      C1303   1.413       .  A
C1301      C1302   1.411       .  A
C1302      C1310   1.406       .  A
C1303      C1312   1.407       .  A
C1303      C1304   1.404       .  A
C1304      C1305   1.400       .  A
C1304      H1315   1.083       .  S
C1305      C1306   1.404       .  A
C1305      H1316   1.084       .  S
C1306      C1307   1.405   1_655  A
C1307      H1317   1.081       .  S
C1308      C1309   1.410       .  A
C1309      H1318   1.084       .  S
C1310      C1311   1.408       .  A
C1310      H1319   1.084       .  S
C1311      C1312   1.405       .  A
C1312      H1320   1.084       .  S
C1321      C1322   1.404       .  A
C1321      C1326   1.405       .  A
C1321      H1337   1.083       .  S
C1322      C1323   1.405       .  A
C1322      H1338   1.083       .  S
C1323      C1333   1.410       .  A
C1323      C1324   1.411       .  A
C1324      C1330   1.411       .  A
C1324      C1325   1.416       .  A
C1325      C1327   1.411       .  A
C1325      C1326   1.413       .  A
C1326      C1334   1.411       .  A
C1327      C1336   1.402       .  A
C1327      C1328   1.403       .  A
C1328      C1329   1.398       .  A
C1328      H1339   1.084       .  S
C1329      C1330   1.403       .  A
C1329      H1340   1.083       .  S
C1330      C1331   1.402       .  A
C1331      C1332   1.408       .  A
C1331      H1341   1.084       .  S
C1332      C1333   1.411       .  A
C1333      H1342   1.084       .  S
C1334      C1335   1.409       .  A
C1334      H1343   1.084       .  S
C1335      C1336   1.406       .  A
C1336      H1344   1.084       .  S
C1345      C1346   1.399       .  A
C1345      C1350   1.403       .  A
C1345      H1361   1.083       .  S
C1346      C1347   1.403       .  A
C1346      H1362   1.083       .  S
C1347      C1357   1.404       .  A
C1347      C1348   1.413       .  A
C1348      C1354   1.412       .  A
C1348      C1349   1.413       .  A
C1349      C1351   1.412       .  A
C1349      C1350   1.412       .  A
C1350      C1358   1.403       .  A
C1351      C1360   1.406       .  A
C1351      C1352   1.404       .  A
C1352      C1353   1.401       .  A
C1352      H1363   1.083       .  S
C1353      C1354   1.404       .  A
C1353      H1364   1.084       .  S
C1354      C1355   1.406       .  A
C1355      C1356   1.405       .  A
C1355      H1365   1.085       .  S
C1356      C1357   1.403       .  A
C1357      H1366   1.085       .  S
C1358      C1359   1.404       .  A
C1358      H1367   1.084       .  S
C1359      C1360   1.406       .  A
C1360      H1368   1.084       .  S
C1369      C1370   1.398       .  A
C1369      C1374   1.403       .  A
C1369      H1385   1.083       .  S
C1370      C1371   1.403       .  A
C1370      H1386   1.084       .  S
C1371      C1381   1.403       .  A
C1371      C1372   1.412       .  A
C1372      C1378   1.410       .  A
C1372      C1373   1.411       .  A
C1373      C1375   1.414       .  A
C1373      C1374   1.411       .  A
C1374      C1382   1.400       .  A
C1375      C1384   1.405       .  A
C1375      C1376   1.403       .  A
C1376      C1377   1.400       .  A
C1376      H1387   1.084       .  S
C1377      C1378   1.404       .  A
C1377      H1388   1.084       .  S
C1378      C1379   1.402       .  A
C1379      C1380   1.409       .  A
C1380      C1381   1.407       .  A
C1381      H1390   1.083       .  S
C1382      C1383   1.404       .  A
C1382      H1391   1.084       .  S
C1383      C1384   1.403       .  A
C1384      H1392   1.085       .  S
C1393      C1394   1.399       .  A
C1393      C1398   1.403   1_545  A
C1393      H1409   1.083       .  S
C1394      C1395   1.403   1_545  A
C1394      H1410   1.083       .  S
C1395      C1405   1.405   1_565  A
C1395      C1396   1.413       .  A
C1396      C1402   1.411       .  A
C1396      C1397   1.414       .  A
C1397      C1399   1.413       .  A
C1397      C1398   1.412       .  A
C1398      C1406   1.403       .  A
C1399      C1408   1.408       .  A
C1399      C1400   1.404       .  A
C1400      C1401   1.401       .  A
C1400      H1411   1.084       .  S
C1401      C1402   1.405       .  A
C1401      H1412   1.084       .  S
C1402      C1403   1.405       .  A
C1403      C1404   1.407   1_565  A
C1403      H1413   1.084       .  S
C1404      C1405   1.406       .  A
C1405      H1414   1.084       .  S
C1406      C1407   1.402       .  A
C1406      H1415   1.084       .  S
C1407      C1408   1.405       .  A
C1417      C1418   1.403       .  A
C1417      C1422   1.405       .  A
C1417      H1433   1.084       .  S
C1418      C1419   1.405       .  A
C1418      H1434   1.083       .  S
C1419      C1429   1.407       .  A
C1419      C1420   1.411       .  A
C1420      C1426   1.412       .  A
C1420      C1421   1.415       .  A
C1421      C1423   1.410       .  A
C1421      C1422   1.414       .  A
C1422      C1430   1.411       .  A
C1423      C1432   1.402       .  A
C1423      C1424   1.403       .  A
C1424      C1425   1.398       .  A
C1424      H1435   1.083       .  S
C1425      C1426   1.403       .  A
C1425      H1436   1.084       .  S
C1426      C1427   1.403       .  A
C1427      C1428   1.406       .  A
C1427      H1437   1.085       .  S
C1428      C1429   1.409       .  A
C1429      H1438   1.084       .  S
C1430      C1431   1.408       .  A
C1430      H1439   1.084       .  S
C1431      C1432   1.407       .  A
C1432      H1440   1.084       .  S
C1441      C1442   1.398       .  A
C1441      C1446   1.403       .  A
C1441      H1457   1.083       .  S
C1442      C1443   1.403       .  A
C1442      H1458   1.084       .  S
C1443      C1453   1.402       .  A
C1443      C1444   1.411       .  A
C1444      C1450   1.411       .  A
C1444      C1445   1.414       .  A
C1445      C1447   1.413       .  A
C1445      C1446   1.411       .  A
C1446      C1454   1.402       .  A
C1447      C1456   1.408   1_565  A
C1447      C1448   1.404   1_565  A
C1448      C1449   1.402       .  A
C1448      H1459   1.084       .  S
C1449      C1450   1.405   1_545  A
C1449      H1460   1.083       .  S
C1450      C1451   1.407       .  A
C1451      C1452   1.410       .  A
C1451      H1461   1.082       .  S
C1452      C1453   1.408       .  A
C1453      H1462   1.083       .  S
C1454      C1455   1.405       .  A
C1454      H1463   1.084       .  S
C1455      C1456   1.405   1_565  A
C1456      H1464   1.085       .  S
C1465      C1466   1.402       .  A
C1465      C1470   1.405       .  A
C1465      H1481   1.084       .  S
C1466      C1467   1.405       .  A
C1466      H1482   1.083       .  S
C1467      C1477   1.409       .  A
C1467      C1468   1.412       .  A
C1468      C1474   1.411       .  A
C1468      C1469   1.416       .  A
C1469      C1470   1.412       .  A
C1470      C1478   1.409       .  A
C1471      C1480   1.405       .  A
C1471      C1472   1.403       .  A
C1472      C1473   1.400       .  A
C1472      H1483   1.083       .  S
C1473      H1484   1.084       .  S
C1474      C1475   1.404       .  A
C1475      C1476   1.407       .  A
C1476      C1477   1.409       .  A
C1477      H1486   1.084       .  S
C1478      H1487   1.085       .  S
C1479      C1480   1.407       .  A
C1480      H1488   1.084       .  S
C1489      C1490   1.400       .  A
C1489      C1494   1.405       .  A
C1489      H1505   1.084       .  S
C1490      C1491   1.404       .  A
C1490      H1506   1.084       .  S
C1491      C1501   1.405       .  A
C1491      C1492   1.412       .  A
C1492      C1498   1.412       .  A
C1492      C1493   1.414       .  A
C1493      C1495   1.412       .  A
C1493      C1494   1.411       .  A
C1494      C1502   1.405       .  A
C1495      C1504   1.405       .  A
C1495      C1496   1.403       .  A
C1496      C1497   1.399       .  A
C1496      H1507   1.083       .  S
C1497      C1498   1.403       .  A
C1497      H1508   1.083       .  S
C1498      C1499   1.404       .  A
C1499      C1500   1.404       .  A
C1499      H1509   1.084       .  S
C1500      C1501   1.406       .  A
C1501      H1510   1.084       .  S
C1502      C1503   1.410       .  A
C1502      H1511   1.085       .  S
C1503      C1504   1.406       .  A
C1504      H1512   1.084       .  S
C1513      C1514   1.400       .  A
C1513      C1518   1.403       .  A
C1513      H1529   1.084       .  S
C1514      C1515   1.404       .  A
C1514      H1530   1.083       .  S
C1515      C1525   1.406       .  A
C1515      C1516   1.412       .  A
C1516      C1522   1.412       .  A
C1516      C1517   1.416       .  A
C1517      C1519   1.412       .  A
C1517      C1518   1.413       .  A
C1518      C1526   1.406       .  A
C1519      C1528   1.407       .  A
C1519      C1520   1.405       .  A
C1520      C1521   1.402       .  A
C1520      H1531   1.084       .  S
C1521      C1522   1.405       .  A
C1523      C1524   1.406       .  A
C1523      H1533   1.084       .  S
C1525      H1534   1.084       .  S
C1526      C1527   1.405       .  A
C1526      H1535   1.085       .  S
C1527      C1528   1.408       .  A
C1528      H1536   1.085       .  S
C1537      C1538   1.398       .  A
C1537      C1542   1.403       .  A
C1537      H1553   1.084       .  S
C1538      C1539   1.403       .  A
C1538      H1554   1.084       .  S
C1539      C1549   1.403       .  A
C1539      C1540   1.413       .  A
C1540      C1546   1.411       .  A
C1540      C1541   1.413       .  A
C1541      C1543   1.413       .  A
C1541      C1542   1.411       .  A
C1542      C1550   1.402       .  A
C1543      C1552   1.406       .  A
C1543      C1544   1.404       .  A
C1544      C1545   1.400       .  A
C1544      H1555   1.083       .  S
C1545      C1546   1.404       .  A
C1545      H1556   1.084       .  S
C1546      C1547   1.403       .  A
C1547      C1548   1.407       .  A
C1547      H1557   1.085       .  S
C1548      C1549   1.404       .  A
C1549      H1558   1.085       .  S
C1550      C1551   1.406       .  A
C1550      H1559   1.084       .  S
C1551      C1552   1.406       .  A
C1552      H1560   1.084       .  S
C1561      C1562   1.401       .  A
C1561      C1566   1.405       .  A
C1561      H1577   1.084       .  S
C1562      C1563   1.404       .  A
C1562      H1578   1.084       .  S
C1563      C1573   1.406       .  A
C1563      C1564   1.412       .  A
C1564      C1570   1.412       .  A
C1564      C1565   1.413       .  A
C1565      C1567   1.411       .  A
C1565      C1566   1.412       .  A
C1566      C1574   1.407       .  A
C1567      C1576   1.402       .  A
C1567      C1568   1.403       .  A
C1568      C1569   1.398       .  A
C1568      H1579   1.084       .  S
C1569      C1570   1.403       .  A
C1569      H1580   1.083       .  S
C1570      C1571   1.403       .  A
C1571      C1572   1.403       .  A
C1571      H1581   1.084       .  S
C1572      C1573   1.405       .  A
C1573      H1582   1.085       .  S
C1574      C1575   1.408       .  A
C1574      H1583   1.084       .  S
C1575      C1576   1.406       .  A
C1576      H1584   1.085       .  S
C1585      C1586   1.402       .  A
C1585      C1590   1.405   1_655  A
C1585      H1601   1.083       .  S
C1586      C1587   1.404       .  A
C1586      H1602   1.084       .  S
C1587      C1597   1.412       .  A
C1587      C1588   1.414   1_655  A
C1589      C1591   1.414       .  A
C1590      C1598   1.407       .  A
C1591      C1600   1.403       .  A
C1591      C1592   1.402       .  A
C1592      C1593   1.397       .  A
C1592      H1603   1.084       .  S
C1593      C1594   1.403       .  A
C1593      H1604   1.084       .  S
C1595      C1596   1.409   1_455  A
C1596      C1597   1.407       .  A
C1597      H1606   1.084       .  S
C1598      H1607   1.084       .  S
C1599      C1600   1.402       .  A
C1600      H1608   1.085       .  S
C1609      C1610   1.398       .  A
C1609      C1614   1.403       .  A
C1609      H1625   1.084       .  S
C1610      C1611   1.403       .  A
C1610      H1626   1.084       .  S
C1611      C1621   1.401       .  A
C1611      C1612   1.410       .  A
C1612      C1618   1.414       .  A
C1612      C1613   1.414       .  A
C1613      C1615   1.411       .  A
C1613      C1614   1.413       .  A
C1614      C1622   1.403       .  A
C1615      C1624   1.407       .  A
C1615      C1616   1.405       .  A
C1616      C1617   1.402       .  A
C1616      H1627   1.083       .  S
C1617      C1618   1.404       .  A
C1617      H1628   1.084       .  S
C1618      C1619   1.410       .  A
C1619      C1620   1.407       .  A
C1619      H1629   1.084       .  S
C1620      C1621   1.406       .  A
C1621      H1630   1.085       .  S
C1622      C1623   1.405       .  A
C1622      H1631   1.085       .  S
C1623      C1624   1.409       .  A
C1624      H1632   1.084       .  S
C1633      C1634   1.400       .  A
C1633      C1638   1.404       .  A
C1633      H1649   1.084       .  S
C1634      C1635   1.404       .  A
C1634      H1650   1.083       .  S
C1635      C1645   1.404       .  A
C1635      C1636   1.412       .  A
C1636      C1642   1.413       .  A
C1636      C1637   1.414       .  A
C1637      C1639   1.411       .  A
C1637      C1638   1.413       .  A
C1638      C1646   1.406       .  A
C1639      C1648   1.404       .  A
C1639      C1640   1.405       .  A
C1640      C1641   1.400       .  A
C1640      H1651   1.083       .  S
C1641      C1642   1.403       .  A
C1641      H1652   1.084       .  S
C1642      C1643   1.405       .  A
C1643      C1644   1.404       .  A
C1643      H1653   1.085       .  S
C1644      C1645   1.405       .  A
C1645      H1654   1.084       .  S
C1646      C1647   1.405       .  A
C1647      C1648   1.406       .  A
C1648      H1656   1.084       .  S
C1657      C1658   1.403       .  A
C1657      C1662   1.405       .  A
C1657      H1673   1.083       .  S
C1658      C1659   1.405       .  A
C1658      H1674   1.084       .  S
C1659      C1669   1.410       .  A
C1659      C1660   1.413       .  A
C1660      C1666   1.411       .  A
C1660      C1661   1.415       .  A
C1661      C1663   1.411       .  A
C1661      C1662   1.411       .  A
C1662      C1670   1.408       .  A
C1663      C1672   1.402       .  A
C1663      C1664   1.403       .  A
C1664      C1665   1.398       .  A
C1664      H1675   1.084       .  S
C1665      C1666   1.404       .  A
C1665      H1676   1.083       .  S
C1666      C1667   1.402       .  A
C1667      C1668   1.407       .  A
C1667      H1677   1.084       .  S
C1668      C1669   1.407       .  A
C1669      H1678   1.084       .  S
C1670      C1671   1.410       .  A
C1670      H1679   1.083       .  S
C1671      C1672   1.408       .  A
C1672      H1680   1.084       .  S
C1681      C1682   1.401       .  A
C1681      C1686   1.404       .  A
C1681      H1697   1.083       .  S
C1682      C1683   1.404       .  A
C1682      H1698   1.084       .  S
C1683      C1693   1.407       .  A
C1683      C1684   1.411       .  A
C1684      C1690   1.412       .  A
C1684      C1685   1.418       .  A
C1685      C1687   1.412       .  A
C1685      C1686   1.411       .  A
C1686      C1694   1.406       .  A
C1687      C1696   1.410       .  A
C1687      C1688   1.405       .  A
C1688      C1689   1.403       .  A
C1688      H1699   1.084       .  S
C1689      C1690   1.405       .  A
C1689      H1700   1.083       .  S
C1690      C1691   1.411       .  A
C1691      C1692   1.410       .  A
C1691      H1701   1.084       .  S
C1692      C1693   1.409       .  A
C1693      H1702   1.084       .  S
C1694      C1695   1.408       .  A
C1694      H1703   1.084       .  S
C1695      C1696   1.410       .  A
C1696      H1704   1.085       .  S
C1705      C1706   1.402       .  A
C1705      C1710   1.405       .  A
C1705      H1721   1.084       .  S
C1706      C1707   1.405       .  A
C1706      H1722   1.083       .  S
C1707      C1717   1.411       .  A
C1707      C1708   1.414       .  A
C1708      C1714   1.411       .  A
C1708      C1709   1.415       .  A
C1709      C1710   1.411       .  A
C1710      C1718   1.407       .  A
C1711      C1720   1.405       .  A
C1711      C1712   1.404       .  A
C1712      C1713   1.400       .  A
C1712      H1723   1.084       .  S
C1713      H1724   1.084       .  S
C1714      C1715   1.403       .  A
C1715      C1716   1.406       .  A
C1716      C1717   1.407       .  A
C1717      H1726   1.084       .  S
C1718      H1727   1.085       .  S
C1719      C1720   1.410       .  A
C1720      H1728   1.085       .  S
C1729      C1730   1.402       .  A
C1729      C1734   1.405       .  A
C1729      H1745   1.084       .  S
C1730      C1731   1.405       .  A
C1730      H1746   1.083       .  S
C1731      C1741   1.408       .  A
C1731      C1732   1.412       .  A
C1732      C1738   1.411       .  A
C1732      C1733   1.413       .  A
C1733      C1735   1.412       .  A
C1733      C1734   1.412       .  A
C1734      C1742   1.407       .  A
C1735      C1744   1.401       .  A
C1735      C1736   1.402       .  A
C1736      C1737   1.398       .  A
C1736      H1747   1.084       .  S
C1737      C1738   1.403       .  A
C1737      H1748   1.083       .  S
C1738      C1739   1.401       .  A
C1739      C1740   1.405       .  A
C1739      H1749   1.084       .  S
C1740      C1741   1.407       .  A
C1741      H1750   1.084       .  S
C1742      C1743   1.408       .  A
C1742      H1751   1.085       .  S
C1743      C1744   1.405       .  A
C1744      H1752   1.085       .  S
C1753      C1754   1.401       .  A
C1753      C1758   1.404       .  A
C1753      H1769   1.084       .  S
C1754      C1755   1.404       .  A
C1754      H1770   1.084       .  S
C1755      C1765   1.406       .  A
C1755      C1756   1.411       .  A
C1756      C1762   1.412       .  A
C1756      C1757   1.413       .  A
C1757      C1759   1.411       .  A
C1757      C1758   1.412       .  A
C1758      C1766   1.406       .  A
C1759      C1768   1.402       .  A
C1759      C1760   1.403       .  A
C1760      C1761   1.399       .  A
C1760      H1771   1.083       .  S
C1761      C1762   1.403       .  A
C1761      H1772   1.084   1_655  S
C1763      C1764   1.406       .  A
C1763      H1773   1.084       .  S
C1766      C1767   1.406       .  A
C1766      H1775   1.084       .  S
C1767      C1768   1.406       .  A
C1768      H1776   1.084       .  S
C1777      C1778   1.402       .  A
C1777      C1782   1.405       .  A
C1777      H1793   1.083       .  S
C1778      C1779   1.404       .  A
C1778      H1794   1.084       .  S
C1779      C1789   1.408       .  A
C1779      C1780   1.412       .  A
C1780      C1786   1.411       .  A
C1780      C1781   1.416       .  A
C1781      C1783   1.411       .  A
C1781      C1782   1.412       .  A
C1782      C1790   1.409       .  A
C1783      C1792   1.405   1_545  A
C1783      C1784   1.404   1_545  A
C1784      C1785   1.399   1_565  A
C1784      H1795   1.084       .  S
C1785      C1786   1.403       .  A
C1785      H1796   1.083   1_545  S
C1786      C1787   1.404       .  A
C1787      C1788   1.406       .  A
C1787      H1797   1.084       .  S
C1788      C1789   1.407       .  A
C1789      H1798   1.084       .  S
C1790      C1791   1.408       .  A
C1790      H1799   1.084       .  S
C1791      C1792   1.409   1_545  A
C1792      H1800   1.085       .  S
C1801      C1802   1.400       .  A
C1801      C1806   1.404       .  A
C1801      H1817   1.083       .  S
C1802      C1803   1.404       .  A
C1802      H1818   1.084       .  S
C1803      C1813   1.405       .  A
C1803      C1804   1.411       .  A
C1804      C1810   1.412       .  A
C1804      C1805   1.416       .  A
C1805      C1807   1.412       .  A
C1805      C1806   1.412       .  A
C1806      C1814   1.405       .  A
C1807      C1816   1.408       .  A
C1807      C1808   1.404       .  A
C1808      C1809   1.402       .  A
C1808      H1819   1.084       .  S
C1809      C1810   1.405       .  A
C1809      H1820   1.083       .  S
C1810      C1811   1.409       .  A
C1811      C1812   1.408       .  A
C1811      H1821   1.084       .  S
C1812      C1813   1.407       .  A
C1813      H1822   1.085       .  S
C1814      C1815   1.408       .  A
C1814      H1823   1.085       .  S
C1815      C1816   1.407       .  A
C1816      H1824   1.085       .  S
C1825      C1826   1.399       .  A
C1825      C1830   1.403       .  A
C1825      H1841   1.083       .  S
C1826      C1827   1.403       .  A
C1826      H1842   1.084       .  S
C1827      C1837   1.402       .  A
C1827      C1828   1.411       .  A
C1828      C1834   1.414       .  A
C1828      C1829   1.415       .  A
C1829      C1831   1.411       .  A
C1829      C1830   1.412       .  A
C1830      C1838   1.404       .  A
C1831      C1840   1.407       .  A
C1831      C1832   1.405       .  A
C1832      C1833   1.402       .  A
C1832      H1843   1.084   1_545  S
C1833      C1834   1.405       .  A
C1833      H1844   1.084       .  S
C1834      C1835   1.411       .  A
C1835      C1836   1.407       .  A
C1835      H1845   1.084       .  S
C1836      C1837   1.406       .  A
C1837      H1846   1.085       .  S
C1838      C1839   1.406       .  A
C1838      H1847   1.084       .  S
C1839      C1840   1.410       .  A
C1840      H1848   1.084   1_545  S
C1849      C1850   1.403       .  A
C1849      C1854   1.405       .  A
C1849      H1865   1.083       .  S
C1850      C1851   1.405       .  A
C1850      H1866   1.084       .  S
C1851      C1861   1.410       .  A
C1851      C1852   1.412       .  A
C1852      C1858   1.411       .  A
C1852      C1853   1.417       .  A
C1853      C1855   1.411       .  A
C1853      C1854   1.412       .  A
C1854      C1862   1.410       .  A
C1855      C1864   1.404       .  A
C1855      C1856   1.403       .  A
C1856      C1857   1.399       .  A
C1856      H1867   1.084       .  S
C1857      C1858   1.404       .  A
C1857      H1868   1.084       .  S
C1858      C1859   1.405       .  A
C1859      C1860   1.408       .  A
C1859      H1869   1.084       .  S
C1860      C1861   1.409       .  A
C1861      H1870   1.084       .  S
C1862      C1863   1.409       .  A
C1862      H1871   1.084       .  S
C1863      C1864   1.407       .  A
C1864      H1872   1.085       .  S
C1873      C1874   1.398       .  A
C1873      C1878   1.403       .  A
C1873      H1889   1.084       .  S
C1874      C1875   1.403       .  A
C1874      H1890   1.084       .  S
C1875      C1885   1.401       .  A
C1875      C1876   1.411       .  A
C1876      C1882   1.412       .  A
C1876      C1877   1.414       .  A
C1877      C1879   1.412       .  A
C1877      C1878   1.411       .  A
C1878      C1886   1.402       .  A
C1879      C1888   1.408       .  A
C1879      C1880   1.405       .  A
C1880      C1881   1.402       .  A
C1880      H1891   1.084       .  S
C1881      C1882   1.405       .  A
C1881      H1892   1.083       .  S
C1882      C1883   1.409       .  A
C1883      C1884   1.407       .  A
C1883      H1893   1.084       .  S
C1884      C1885   1.405       .  A
C1885      H1894   1.084       .  S
C1886      C1887   1.407       .  A
C1886      H1895   1.084       .  S
C1887      C1888   1.408       .  A
C1888      H1896   1.084       .  S
C1897      C1898   1.403       .  A
C1897      C1902   1.406       .  A
C1897      H1913   1.083       .  S
C1898      C1899   1.405       .  A
C1898      H1914   1.084       .  S
C1899      C1909   1.410       .  A
C1899      C1900   1.412       .  A
C1900      C1906   1.412       .  A
C1900      C1901   1.416       .  A
C1901      C1903   1.412       .  A
C1901      C1902   1.413       .  A
C1902      C1910   1.411       .  A
C1903      C1912   1.405       .  A
C1903      C1904   1.403       .  A
C1904      C1905   1.399       .  A
C1904      H1915   1.083       .  S
C1905      C1906   1.403       .  A
C1905      H1916   1.083       .  S
C1906      C1907   1.404       .  A
C1907      C1908   1.407       .  A
C1907      H1917   1.085       .  S
C1908      C1909   1.410       .  A
C1909      H1918   1.085       .  S
C1910      C1911   1.409       .  A
C1910      H1919   1.084       .  S
C1911      C1912   1.405       .  A
C1912      H1920   1.084       .  S
C1921      C1922   1.398       .  A
C1921      C1926   1.403       .  A
C1921      H1937   1.083       .  S
C1922      H1938   1.084       .  S
C1923      C1933   1.401       .  A
C1923      C1924   1.409       .  A
C1924      C1930   1.414       .  A
C1925      C1927   1.411       .  A
C1925      C1926   1.413       .  A
C1926      C1934   1.403       .  A
C1927      C1936   1.405       .  A
C1927      C1928   1.405       .  A
C1928      H1939   1.084       .  S
C1929      C1930   1.404       .  A
C1929      H1940   1.084       .  S
C1930      C1931   1.410       .  A
C1931      C1932   1.407       .  A
C1931      H1941   1.084       .  S
C1932      C1933   1.409       .  A
C1933      H1942   1.085       .  S
C1934      C1935   1.404       .  A
C1934      H1943   1.084       .  S
C1935      C1936   1.408       .  A
C1936      H1944   1.085       .  S
C1945      C1946   1.402       .  A
C1945      C1950   1.405       .  A
C1945      H1961   1.084       .  S
C1946      C1947   1.404       .  A
C1946      H1962   1.084       .  S
C1947      C1957   1.408       .  A
C1947      C1948   1.413       .  A
C1948      C1954   1.411       .  A
C1948      C1949   1.416       .  A
C1949      C1951   1.412       .  A
C1949      C1950   1.411       .  A
C1950      C1958   1.408       .  A
C1951      C1960   1.406       .  A
C1951      C1952   1.404       .  A
C1952      C1953   1.399       .  A
C1952      H1963   1.084       .  S
C1953      C1954   1.403       .  A
C1953      H1964   1.084       .  S
C1954      C1955   1.403       .  A
C1955      C1956   1.405       .  A
C1956      C1957   1.406       .  A
C1957      H1966   1.085   1_655  S
C1958      C1959   1.410       .  A
C1958      H1967   1.084       .  S
C1959      C1960   1.407       .  A
C1960      H1968   1.084       .  S
