geometry optimzed in LAMMPS
_audit_creation_date              2020-12-01 
_audit_creation_method            'lammps2cif' 
_symmetry_space_group_name_H-M    'P1' 
_symmetry_Int_Tables_number       1 
_symmetry_cell_setting            triclinic 
loop_ 
_symmetry_equiv_pos_as_xyz 
  x,y,z 
_cell_length_a                    41.44976453 
_cell_length_b                    42.23630248757298 
_cell_length_c                    46.95579924612175 
_cell_angle_alpha                 96.46196128737725 
_cell_angle_beta                  82.62427200886171 
_cell_angle_gamma                 122.76365357678445 
loop_ 
_atom_site_label 
_atom_site_type_symbol 
_atom_site_fract_x 
_atom_site_fract_y 
_atom_site_fract_z 
_atom_site_charge 
C1          C  0.35460330  0.15199179  0.99024172     0.02800
C2          C  0.37537007  0.19149263  0.98976193    -0.13400
C3          C  0.35650932  0.21035749  0.98704655     0.00300
C4          C  0.31666283  0.18890777  0.98412334    -0.11900
C5          C  0.29570850  0.14950599  0.98495197     0.02800
C6          C  0.31465337  0.13132689  0.98872121    -0.11300
H7          H  0.40640318  0.20731822  0.99008263     0.08300
H8          H  0.30230178  0.20249143  0.97920675     0.05900
H9          H  0.29873763  0.10078844  0.98811922     0.05700
C10         C  0.36163526  0.15261623  0.23691632     0.02800
C11         C  0.32177375  0.13241723  0.23539462    -0.13400
C12         C  0.30275229  0.15126873  0.23410973     0.00300
C13         C  0.32409524  0.19084390  0.23465932    -0.11900
C14         C  0.36386974  0.21166739  0.23781716     0.02800
C15         C  0.38243775  0.19218964  0.23918533    -0.11300
H16         H  0.30585470  0.10186641  0.23335405     0.08300
H17         H  0.31025507  0.20543705  0.23090805     0.05900
H18         H  0.41336286  0.20776053  0.24021449     0.05700
C19         C  0.14188841  0.34330993  0.35152434     0.02800
C20         C  0.11951798  0.30390598  0.35268079    -0.13400
C21         C  0.13651041  0.28411970  0.35764425     0.00300
C22         C  0.17648909  0.30392607  0.35972708    -0.11900
C23         C  0.19925797  0.34314381  0.35744380     0.02800
C24         C  0.18171326  0.36263123  0.35347499    -0.11300
H25         H  0.08873062  0.28908232  0.35148764     0.08300
H26         H  0.18951493  0.28908524  0.36483499     0.05900
H27         H  0.19869275  0.39318586  0.35388698     0.05700
C28         C  0.14482485  0.35031951  0.11383479     0.02800
C29         C  0.12262359  0.31077470  0.11226476    -0.13400
C30         C  0.13979009  0.29028664  0.11417970     0.00300
C31         C  0.17958987  0.30953716  0.11620802    -0.11900
C32         C  0.20182979  0.34896667  0.11774164     0.02800
C33         C  0.18462856  0.36917110  0.11530080    -0.11300
H34         H  0.09179888  0.29606308  0.11089459     0.08300
H35         H  0.19294528  0.29378614  0.11833214     0.05900
H36         H  0.20216686  0.39987760  0.11581262     0.05700
N37         N  0.08107576  0.05501181  0.45317504    -0.06500
N38         N  0.10782725  0.06951926  0.47165770    -0.58600
N39         N  0.06119753  0.07824063  0.39477697    -0.06200
N40         N  0.07402740  0.10395977  0.37560672    -0.60700
N41         N  0.04871148  0.08854493  0.41888923    -0.05800
N42         N  0.05280617  0.12141317  0.41657805    -0.58600
N43         N  0.09273516  0.04393169  0.42900195    -0.05400
N44         N  0.12730192  0.05042401  0.43060955    -0.61100
C45         C  0.13652509  0.06618250  0.45739406     0.95700
C46         C  0.06860580  0.13088069  0.38935813     0.95500
N47         N  0.48900437  0.47413102  0.35239752    -0.06700
N48         N  0.47517383  0.46633002  0.32703843    -0.59200
N49         N  0.05704542  0.47069701  0.37887956    -0.04800
N50         N  0.08596164  0.46544600  0.37443129    -0.60400
N51         N  0.02392254  0.43814760  0.37830824    -0.06700
N52         N  0.02961164  0.41007298  0.37332898    -0.59500
N53         N  0.02684249  0.00597797  0.35374640    -0.04400
N54         N  0.03713690  0.02176896  0.32884845    -0.60500
Mn55       Mn  0.06058382  0.02539187  0.39070476     1.18400
C56         C  0.50237439  0.49603172  0.31171219     0.97800
C57         C  0.06834940  0.42756962  0.37111291     0.98400
N58         N  0.47375618  0.05305590  0.45833230    -0.06700
N59         N  0.47018442  0.08244723  0.46155704    -0.63000
N60         N  0.47249403  0.48901894  0.49223115    -0.07300
N61         N  0.46535205  0.47675023  0.01688676    -0.63700
N62         N  0.00340238  0.01751515  0.49306385    -0.06200
N63         N  0.02227996  0.02949884  0.01954451    -0.63300
N64         N  0.43977210  0.02143802  0.45810200    -0.05100
N65         N  0.41232397  0.02896430  0.46143109    -0.64000
Mn66       Mn  0.02678243  0.05382441  0.45651806     1.10700
C67         C  0.43184904  0.06725417  0.46315745     0.99000
C68         C  0.49561848  0.50237111  0.03188056     0.99100
N69         N  0.44635526  0.40410492  0.42725419    -0.06200
N70         N  0.44144217  0.37078488  0.42879493    -0.61600
N71         N  0.40130031  0.44772361  0.41934124    -0.05600
N72         N  0.36590250  0.43980384  0.41934564    -0.58300
N73         N  0.41189670  0.43661048  0.39464094    -0.06900
N74         N  0.38349146  0.42070065  0.37748266    -0.61200
N75         N  0.43514765  0.41461369  0.45196652    -0.05900
N76         N  0.42224630  0.38835252  0.47077731    -0.58400
Mn77       Mn  0.46665472  0.43804569  0.38926526     1.20200
Mn78       Mn  0.43602195  0.46788497  0.45636324     1.10100
Cl79       Cl  0.49674355  0.49748175  0.42224092    -0.86300
C80         C  0.42678241  0.36122752  0.45608535     0.96000
C81         C  0.35485446  0.42308685  0.39314476     0.95800
N82         N  0.09052306  0.06162567  0.19992667    -0.06500
N83         N  0.11878072  0.07578566  0.21696306    -0.58600
N84         N  0.06386406  0.08283025  0.14408362    -0.06200
N85         N  0.07497751  0.10830902  0.12503455    -0.60700
N86         N  0.05407350  0.09375537  0.16919509    -0.05800
N87         N  0.05823517  0.12670272  0.16769571    -0.58600
N88         N  0.10037491  0.05081929  0.17479894    -0.05400
N89         N  0.13533398  0.05734217  0.17428501    -0.61100
C90         C  0.14659618  0.07265640  0.20077139     0.95700
C91         C  0.07125933  0.13563749  0.14001423     0.95500
N92         N  0.48905262  0.47776976  0.10208882    -0.06700
N93         N  0.47329786  0.46965785  0.07750211    -0.59200
N94         N  0.05805725  0.47440355  0.12720036    -0.04800
N95         N  0.08637431  0.46836130  0.12202477    -0.60400
N96         N  0.02458107  0.44217036  0.12778206    -0.06700
N97         N  0.02934420  0.41355257  0.12286703    -0.59500
N98         N  0.02564726  0.00882477  0.10414570    -0.04400
N99         N  0.03268912  0.02305074  0.07888691    -0.60500
Mn100      Mn  0.06369415  0.03038392  0.13900850     1.18400
C101        C  0.49903434  0.49940644  0.06174303     0.97800
C102        C  0.06792038  0.43037613  0.11900430     0.98400
N103        N  0.47886628  0.05665838  0.21249248    -0.06700
N104        N  0.47346794  0.08490734  0.21739335    -0.63000
N105        N  0.47893482  0.49000902  0.24176382    -0.05500
N106        N  0.47022978  0.47475190  0.26674259    -0.63700
N107        N  0.01635352  0.02469130  0.24382314    -0.06200
N108        N  0.03192797  0.03179104  0.26837138    -0.63300
N109        N  0.44565799  0.02415633  0.21325137    -0.05100
N110        N  0.41693640  0.02967452  0.21893674    -0.64000
Mn111      Mn  0.03637625  0.06067177  0.20729310     1.10700
C112        C  0.43482148  0.06767044  0.22160934     0.99000
C113        C  0.50045588  0.49977345  0.28177250     0.99100
N114        N  0.45087454  0.40693901  0.17567830    -0.06200
N115        N  0.44655487  0.37375102  0.17656447    -0.61600
N116        N  0.40554690  0.45134729  0.17077039    -0.05600
N117        N  0.37045271  0.44441613  0.17126133    -0.58300
N118        N  0.41566526  0.44087839  0.14558938    -0.06900
N119        N  0.38763463  0.42662564  0.12837154    -0.61200
N120        N  0.44053965  0.41711648  0.20089299    -0.05900
N121        N  0.42893819  0.39089936  0.21944273    -0.58400
Mn122      Mn  0.46936837  0.44166691  0.13836765     1.20200
Mn123      Mn  0.44146294  0.47022311  0.20685386     1.10100
Cl124      Cl  0.50110186  0.50050761  0.17177029    -0.86300
C125        C  0.43320941  0.36403582  0.20402601     0.96000
C126        C  0.35983534  0.42953301  0.14454398     0.95800
C127        C  0.07710846  0.19690790  0.14908771    -0.06100
C128        C  0.08420177  0.17311225  0.12958675    -0.00200
C129        C  0.10576639  0.18718762  0.10287534    -0.08800
C130        C  0.12118574  0.22528232  0.09777618    -0.06200
C131        C  0.11619553  0.24935948  0.11836942    -0.00200
C132        C  0.09359185  0.23503416  0.14443300    -0.08700
C133        C  0.08862210  0.26012578  0.16816261     0.61700
H134        H  0.05969698  0.18585784  0.16893035     0.12400
H135        H  0.13893903  0.23723406  0.07820323     0.12400
C136        C  0.11388680  0.16320155  0.08015181     0.61900
F137        F  0.07090865  0.24152800  0.19335090    -0.23300
F138        F  0.06620446  0.27182324  0.15958100    -0.20600
F139        F  0.12409073  0.29123645  0.17442008    -0.20300
F140        F  0.07958949  0.13161653  0.07213756    -0.20300
F141        F  0.13593823  0.15242946  0.09082626    -0.20600
F142        F  0.13396459  0.18258448  0.05562821    -0.23300
C143        C  0.27118274  0.39079430  0.10368823    -0.06100
C144        C  0.24218631  0.36936150  0.12481608    -0.00200
C145        C  0.25180748  0.36987827  0.15281805    -0.08800
C146        C  0.29071461  0.39030819  0.15819560    -0.06200
C147        C  0.31989152  0.41060726  0.13683404    -0.00200
C148        C  0.31022725  0.41187906  0.10932028    -0.08700
C149        C  0.34066416  0.43643112  0.08649130     0.61700
H150        H  0.26291372  0.39083435  0.08276116     0.12400
H151        H  0.29871099  0.39007656  0.17918040     0.12400
C152        C  0.22131927  0.34992078  0.17721200     0.61900
F153        F  0.32439546  0.43863476  0.06340354    -0.23300
F154        F  0.36294638  0.42170682  0.07631337    -0.20600
F155        F  0.36391182  0.47263993  0.09806704    -0.20300
F156        F  0.20166775  0.31137278  0.17161344    -0.20300
F157        F  0.19574527  0.36167878  0.18020241    -0.20600
F158        F  0.23717187  0.35767563  0.20325373    -0.23300
C159        C  0.10588638  0.36772337  0.09196999    -0.06100
C160        C  0.12591902  0.37173713  0.11539879    -0.00200
C161        C  0.12578615  0.39428508  0.14020942    -0.08800
C162        C  0.10736772  0.41388455  0.13984999    -0.06200
C163        C  0.08752647  0.40988717  0.11649839    -0.00200
C164        C  0.08597077  0.38611134  0.09228461    -0.08700
C165        C  0.06384640  0.38062587  0.06691797     0.61700
H166        H  0.10574497  0.34977324  0.07355078     0.12400
H167        H  0.10736768  0.43183368  0.15822589     0.12400
C168        C  0.14283025  0.39617539  0.16761349     0.61900
F169        F  0.06740813  0.35746232  0.04512430    -0.23300
F170        F  0.07761618  0.41511996  0.05585393    -0.20600
F171        F  0.02518893  0.36424729  0.07570549    -0.20300
F172        F  0.12827515  0.36010006  0.17575532    -0.20300
F173        F  0.13381918  0.41492988  0.19016829    -0.20600
F174        F  0.18243360  0.41514894  0.16340407    -0.23300
C175        C  0.11896819  0.21864099  0.34457186    -0.06100
C176        C  0.11288490  0.24339296  0.36347677    -0.00200
C177        C  0.08862031  0.22982768  0.38910167    -0.08800
C178        C  0.07361736  0.19243013  0.39580885    -0.06200
C179        C  0.08168583  0.16806919  0.37787464    -0.00200
C180        C  0.10320756  0.18087119  0.35090429    -0.08700
C181        C  0.11025186  0.15562466  0.32879564     0.61700
H182        H  0.13734579  0.22970361  0.32504389     0.12400
H183        H  0.05587980  0.18219464  0.41567974     0.12400
C184        C  0.07924137  0.25473566  0.40979328     0.61900
F185        F  0.12888354  0.17336162  0.30340090    -0.23300
F186        F  0.07545453  0.12358249  0.32222179    -0.20600
F187        F  0.13306912  0.14573768  0.33939514    -0.20300
F188        F  0.05624643  0.26272564  0.39720906    -0.20300
F189        F  0.11268069  0.28803443  0.41686851    -0.20600
F190        F  0.05950175  0.23732821  0.43509369    -0.23300
C191        C  0.30736550  0.38652557  0.35652477    -0.06100
C192        C  0.31491797  0.40501540  0.38405252    -0.00200
C193        C  0.28398714  0.40428275  0.40208482    -0.08800
C194        C  0.24701017  0.38409167  0.39205921    -0.06200
C195        C  0.23962468  0.36468187  0.36517155    -0.00200
C196        C  0.27015415  0.36634400  0.34675936    -0.08700
C197        C  0.26337711  0.34727995  0.31684618     0.61700
H198        H  0.33079506  0.38745207  0.34269032     0.12400
H199        H  0.22293237  0.38249736  0.40546891     0.12400
C200        C  0.28879282  0.42372081  0.43197821     0.61900
F201        F  0.29732933  0.35441410  0.30156296    -0.23300
F202        F  0.24678987  0.36039357  0.30167395    -0.20600
F203        F  0.23905475  0.30871017  0.31872858    -0.20300
F204        F  0.31639144  0.46178306  0.43042655    -0.20300
F205        F  0.29927969  0.40747611  0.44988492    -0.20600
F206        F  0.25505525  0.42050687  0.44444534    -0.23300
C207        C  0.12370777  0.38309569  0.38223267    -0.06100
C208        C  0.12317651  0.36508304  0.35514237    -0.00200
C209        C  0.10638699  0.36930645  0.33263837    -0.08800
C210        C  0.08845606  0.38995234  0.33863352    -0.06200
C211        C  0.08872272  0.40757813  0.36587257    -0.00200
C212        C  0.10736187  0.40503384  0.38784885    -0.08700
C213        C  0.10985238  0.42538122  0.41705116     0.61700
H214        H  0.13742436  0.38000793  0.39893849     0.12400
H215        H  0.07437866  0.39277941  0.32206410     0.12400
C216        C  0.10836690  0.35295299  0.30248322     0.61900
F217        F  0.12773310  0.41773758  0.43577506    -0.23300
F218        F  0.07330536  0.41434017  0.42924044    -0.20600
F219        F  0.13088376  0.46387416  0.41387677    -0.20300
F220        F  0.08675811  0.31403767  0.30231937    -0.20300
F221        F  0.14619119  0.36501268  0.29331046    -0.20600
F222        F  0.09443206  0.36417803  0.28307498    -0.23300
C223        C  0.41794725  0.10876662  0.20358301    -0.06100
C224        C  0.41498580  0.08829515  0.22627602    -0.00200
C225        C  0.39422844  0.08864946  0.25259196    -0.08800
C226        C  0.37833412  0.11118467  0.25568569    -0.06200
C227        C  0.38152537  0.13188324  0.23297750    -0.00200
C228        C  0.40023366  0.12951090  0.20609042    -0.08700
C229        C  0.39969742  0.14704497  0.17977507     0.61700
H230        H  0.43343666  0.10745828  0.18351798     0.12400
H231        H  0.36270721  0.11238641  0.27570016     0.12400
C232        C  0.38913997  0.06554127  0.27719651     0.61900
F233        F  0.41749928  0.13925613  0.15547007    -0.23300
F234        F  0.41865980  0.18569318  0.18424210    -0.20600
F235        F  0.36201755  0.13283426  0.17444936    -0.20300
F236        F  0.42475866  0.07640901  0.28541248    -0.20300
F237        F  0.36968240  0.02771782  0.26853310    -0.20600
F238        F  0.36819453  0.07013439  0.30092412    -0.23300
C239        C  0.41538205  0.26635607  0.21115464    -0.06100
C240        C  0.38667872  0.25304513  0.23400550    -0.00200
C241        C  0.37757293  0.27838062  0.24958550    -0.08800
C242        C  0.39380979  0.31442489  0.23925875    -0.06200
C243        C  0.42044015  0.32681727  0.21496297    -0.00200
C244        C  0.43316418  0.30302658  0.20166171    -0.08700
C245        C  0.46517848  0.31554229  0.17754876     0.61700
H246        H  0.42251355  0.24701330  0.19964389     0.12400
H247        H  0.38514234  0.33295300  0.25030767     0.12400
C248        C  0.35170039  0.26936800  0.27732224     0.61900
F249        F  0.47723636  0.29044623  0.17194876    -0.23300
F250        F  0.49672554  0.35026075  0.18514658    -0.20600
F251        F  0.45242408  0.31780101  0.15251000    -0.20300
F252        F  0.34196785  0.23586725  0.28806804    -0.20300
F253        F  0.31843892  0.26754360  0.27269566    -0.20600
F254        F  0.37059307  0.29778832  0.29804789    -0.23300
C255        C  0.19505235  0.11014885  0.23625565    -0.06100
C256        C  0.18610531  0.08905656  0.20981908    -0.00200
C257        C  0.21524034  0.08553111  0.19289976    -0.08800
C258        C  0.25285098  0.10657838  0.20175520    -0.06200
C259        C  0.26196280  0.12929250  0.22728585    -0.00200
C260        C  0.23235211  0.12973582  0.24560309    -0.08700
C261        C  0.23970057  0.14967547  0.27524025     0.61700
H262        H  0.17260714  0.11175057  0.24961586     0.12400
H263        H  0.27590939  0.10591786  0.18847811     0.12400
C264        C  0.20746006  0.05971890  0.16586928     0.61900
F265        F  0.20583233  0.14179568  0.29108537    -0.23300
F266        F  0.26266139  0.18818465  0.27284683    -0.20600
F267        F  0.25777991  0.13804126  0.29027313    -0.20300
F268        F  0.19993038  0.07376186  0.14411376    -0.20300
F269        F  0.17650015  0.02382772  0.17161513    -0.20600
F270        F  0.23865561  0.05663196  0.15597592    -0.23300
C271        C  0.38201287  0.07632116  0.49035686    -0.06100
C272        C  0.41370146  0.08972550  0.46985550    -0.00200
C273        C  0.42816088  0.12471018  0.45755481    -0.08800
C274        C  0.40881908  0.14384752  0.46528233    -0.06200
C275        C  0.37709622  0.13047854  0.48595034    -0.00200
C276        C  0.36483896  0.09706792  0.49981811    -0.08700
C277        C  0.33489101  0.08283192  0.52527208     0.61700
H278        H  0.37175279  0.05013718  0.50025799     0.12400
H279        H  0.41800284  0.16926220  0.45472414     0.12400
C280        C  0.46310384  0.14146760  0.43579825     0.61900
F281        F  0.34698840  0.07112432  0.54572274    -0.23300
F282        F  0.32206490  0.10204349  0.03950056    -0.20600
F283        F  0.32895862  0.11040536  0.53852714    -0.20300
F284        F  0.45820507  0.11512980  0.41360613    -0.20300
F285        F  0.49577994  0.15243195  0.44907866    -0.20600
F286        F  0.46903281  0.17296980  0.42394690    -0.23300
C287        C  0.38417008  0.31061317  0.49018135    -0.06100
C288        C  0.41284214  0.32371723  0.46716158    -0.00200
C289        C  0.42616227  0.30008332  0.45471243    -0.08800
C290        C  0.40699906  0.26284673  0.46336016    -0.06200
C291        C  0.37642357  0.24883479  0.48487078    -0.00200
C292        C  0.36630567  0.27384056  0.49976603    -0.08700
C293        C  0.34258201  0.26574049  0.02542548     0.61700
H294        H  0.37481848  0.32899979  0.50027353     0.12400
H295        H  0.41493164  0.24376280  0.45238710     0.12400
C296        C  0.46044981  0.31349425  0.43246268     0.61900
F297        F  0.30032734  0.24425042  0.51707666    -0.23300
F298        F  0.34350619  0.29389463  0.54307131    -0.20600
F299        F  0.34730279  0.24312144  0.04140241    -0.20300
F300        F  0.49076137  0.34835963  0.44135414    -0.20300
F301        F  0.45032537  0.31588872  0.40622702    -0.20600
F302        F  0.47328686  0.28896841  0.42858305    -0.23300
C303        C  0.22675021  0.12423650  0.99972231    -0.06100
C304        C  0.25437337  0.12316389  0.47855854    -0.00200
C305        C  0.24428680  0.11029628  0.45008180    -0.08800
C306        C  0.20534821  0.09050202  0.44476611    -0.06200
C307        C  0.17617569  0.08410742  0.46667061    -0.00200
C308        C  0.18628627  0.09621812  0.49549783    -0.08700
C309        C  0.15873304  0.10348699  0.01865693     0.61700
H310        H  0.23600634  0.13781102  0.02065758     0.12400
H311        H  0.19769295  0.08110499  0.42287992     0.12400
C312        C  0.27471389  0.11893437  0.42514655     0.61900
F313        F  0.17533856  0.11789907  0.04456184    -0.23300
F314        F  0.12898188  0.06647419  0.02233563    -0.20600
F315        F  0.14426512  0.12453435  0.01251706    -0.20300
F316        F  0.29584680  0.10355321  0.42910998    -0.20300
F317        F  0.29911141  0.15754571  0.42344633    -0.20600
F318        F  0.25863578  0.10430408  0.39908708    -0.23300
C319        C  0.35512591  0.14963137  0.48960884     0.02800
C320        C  0.37438962  0.18930648  0.49149297    -0.13400
C321        C  0.35461577  0.20749787  0.48934489     0.00300
C322        C  0.31490634  0.18531265  0.48611553    -0.11900
C323        C  0.29514133  0.14589345  0.48522014     0.02800
C324        C  0.31527783  0.12827869  0.48688628    -0.11300
H325        H  0.40522400  0.20609023  0.49307929     0.08300
H326        H  0.29977194  0.19839805  0.48192487     0.05900
H327        H  0.30019362  0.09786147  0.48414476     0.05700
C328        C  0.35066425  0.14588163  0.73686171     0.02800
C329        C  0.31076959  0.12673157  0.73566348    -0.13400
C330        C  0.29302397  0.14655152  0.73296449     0.00300
C331        C  0.31580121  0.18598272  0.73172135    -0.11900
C332        C  0.35557817  0.20583253  0.73484735     0.02800
C333        C  0.37275436  0.18541153  0.73755116    -0.11300
H334        H  0.29385873  0.09616425  0.73484428     0.08300
H335        H  0.30303618  0.20116248  0.72690207     0.05900
H336        H  0.40364693  0.20010540  0.73842077     0.05700
C337        C  0.14558154  0.34617306  0.85227716     0.02800
C338        C  0.12337831  0.30699660  0.85475041    -0.13400
C339        C  0.14072381  0.28750300  0.85944225     0.00300
C340        C  0.18085754  0.30744964  0.86077380    -0.11900
C341        C  0.20383723  0.34638449  0.85658762     0.02800
C342        C  0.18574675  0.36534811  0.85214681    -0.11300
H343        H  0.09239838  0.29208236  0.85502153     0.08300
H344        H  0.19361201  0.29299008  0.86704547     0.05900
H345        H  0.20273612  0.39570567  0.85061460     0.05700
C346        C  0.14614436  0.34930311  0.61678770     0.02800
C347        C  0.12288352  0.30974417  0.61627697    -0.13400
C348        C  0.13890844  0.28852371  0.61956098     0.00300
C349        C  0.17841224  0.30708810  0.62280399    -0.11900
C350        C  0.20164406  0.34649314  0.62332364     0.02800
C351        C  0.18571283  0.36728455  0.61900598    -0.11300
H352        H  0.09216379  0.29565614  0.61460221     0.08300
H353        H  0.19082628  0.29084213  0.62609638     0.05900
H354        H  0.20411466  0.39790908  0.61850013     0.05700
N355        N  0.08103235  0.05793213  0.95322479    -0.06500
N356        N  0.10828178  0.07318060  0.97124785    -0.58600
N357        N  0.05809310  0.07934676  0.89569776    -0.06200
N358        N  0.07144525  0.10530753  0.87666704    -0.60700
N359        N  0.04681867  0.09024991  0.92014249    -0.05800
N360        N  0.05230014  0.12377734  0.91816469    -0.58600
N361        N  0.09219646  0.04669840  0.92889129    -0.05400
N362        N  0.12731843  0.05412606  0.92999649    -0.61100
C363        C  0.13708493  0.07046468  0.95668324     0.95700
C364        C  0.06757677  0.13298317  0.89080735     0.95500
N365        N  0.49416693  0.47705058  0.85142123    -0.06700
N366        N  0.48067021  0.46876281  0.82597241    -0.59200
N367        N  0.05879987  0.47220358  0.87951692    -0.04800
N368        N  0.08765923  0.46689780  0.87595235    -0.60400
N369        N  0.02564597  0.43965324  0.87952246    -0.06700
N370        N  0.03133114  0.41151507  0.87577318    -0.59500
N371        N  0.02086166  0.00540654  0.85533703    -0.04400
N372        N  0.02973234  0.01934008  0.82971183    -0.60500
Mn373      Mn  0.05724526  0.02637309  0.89150456     1.18400
C374        C  0.50795003  0.49819760  0.81056931     0.97800
C375        C  0.07010195  0.42899553  0.87389961     0.98400
N376        N  0.47077516  0.05472757  0.96104611    -0.06700
N377        N  0.46592453  0.08334091  0.96378695    -0.63000
N378        N  0.47428034  0.49116820  0.99144375    -0.07300
N379        N  0.46476384  0.47399470  0.51725232    -0.63700
N380        N  0.00628889  0.02109615  0.99508802    -0.06200
N381        N  0.01683108  0.02571594  0.51857878    -0.63300
N382        N  0.43735325  0.02248418  0.96238787    -0.05100
N383        N  0.40894640  0.02864363  0.96626824    -0.64000
Mn384      Mn  0.02697370  0.05650501  0.95825478     1.10700
C385        C  0.42734008  0.06673275  0.96677143     0.99000
C386        C  0.49535000  0.49965221  0.53183861     0.99100
N387        N  0.44958866  0.40678480  0.92580524    -0.06200
N388        N  0.44480581  0.37356035  0.92749146    -0.61600
N389        N  0.40539172  0.45095083  0.91655044    -0.05600
N390        N  0.37057185  0.44409486  0.91512136    -0.58300
N391        N  0.41703250  0.44018507  0.89216758    -0.06900
N392        N  0.39020777  0.42573068  0.87376513    -0.61200
N393        N  0.43785245  0.41718278  0.95033135    -0.05900
N394        N  0.42487032  0.39101378  0.96921630    -0.58400
Mn395      Mn  0.47107974  0.44092602  0.88795322     1.20200
Mn396      Mn  0.43888413  0.47051140  0.95458177     1.10100
Cl397      Cl  0.50060716  0.49988099  0.92119971    -0.86300
C398        C  0.42984018  0.36406075  0.95473516     0.96000
C399        C  0.36143363  0.42877389  0.88823275     0.95800
N400        N  0.07940047  0.05369191  0.69974883    -0.06500
N401        N  0.10792580  0.06859368  0.71660191    -0.58600
N402        N  0.05376399  0.07676232  0.64489599    -0.06200
N403        N  0.06763029  0.10411044  0.62697783    -0.60700
N404        N  0.04317269  0.08667573  0.67013003    -0.05800
N405        N  0.04949696  0.12073404  0.66980655    -0.58600
N406        N  0.08933134  0.04312067  0.67452291    -0.05400
N407        N  0.12473365  0.05071324  0.67378070    -0.61100
C408        C  0.13609924  0.06631827  0.70022145     0.95700
C409        C  0.06458130  0.13144876  0.64270907     0.95500
N410        N  0.49081171  0.47477584  0.60143730    -0.06700
N411        N  0.47462488  0.46629975  0.57701814    -0.59200
N412        N  0.05738583  0.47150558  0.62525073    -0.04800
N413        N  0.08665652  0.46687396  0.62101439    -0.60400
N414        N  0.02455693  0.43870174  0.62626337    -0.06700
N415        N  0.03072146  0.41095083  0.62256266    -0.59500
N416        N  0.01450017  0.00352030  0.60383236    -0.04400
N417        N  0.02261961  0.01828181  0.57868191    -0.60500
Mn418      Mn  0.05269891  0.02367791  0.63858637     1.18400
C419        C  0.49970650  0.49629076  0.56124586     0.97800
C420        C  0.06946637  0.42904643  0.61901785     0.98400
N421        N  0.47027764  0.05215988  0.71539649    -0.06700
N422        N  0.46502639  0.08051966  0.72047675    -0.63000
N423        N  0.48380813  0.48910567  0.74066637    -0.05500
N424        N  0.47587498  0.47471233  0.76588112    -0.63700
N425        N  0.00623041  0.01640945  0.74404686    -0.06200
N426        N  0.02184929  0.02521136  0.76876847    -0.63300
N427        N  0.43706704  0.01972376  0.71676203    -0.05100
N428        N  0.40846912  0.02537409  0.72289579    -0.64000
Mn429      Mn  0.02508117  0.05221913  0.70752127     1.10700
C430        C  0.42643633  0.06338602  0.72540428     0.99000
C431        C  0.50599838  0.50080721  0.78054436     0.99100
N432        N  0.45531564  0.40474763  0.67523908    -0.06200
N433        N  0.44968900  0.37091950  0.67575071    -0.61600
N434        N  0.40823917  0.44759121  0.67110894    -0.05600
N435        N  0.37296193  0.44028390  0.67228261    -0.58300
N436        N  0.41777296  0.43685484  0.64580345    -0.06900
N437        N  0.38895687  0.42187174  0.62920069    -0.61200
N438        N  0.44528377  0.41501693  0.70054817    -0.05900
N439        N  0.43253159  0.38818735  0.71875939    -0.58400
Mn440      Mn  0.47244611  0.43911822  0.63788852     1.20200
Mn441      Mn  0.44518707  0.46774184  0.70653004     1.10100
Cl442      Cl  0.50380525  0.49850890  0.67075745    -0.86300
C443        C  0.43585033  0.36088925  0.70310219     0.96000
C444        C  0.36136074  0.42467032  0.64591820     0.95800
C445        C  0.07618773  0.19509223  0.65448513    -0.06100
C446        C  0.08001835  0.17033945  0.63365301    -0.00200
C447        C  0.09945870  0.18415870  0.60630197    -0.08800
C448        C  0.11669439  0.22283358  0.60195599    -0.06200
C449        C  0.11432088  0.24749123  0.62350995    -0.00200
C450        C  0.09294344  0.23337305  0.64995383    -0.08700
C451        C  0.08814010  0.25863274  0.67357200     0.61700
H452        H  0.06030962  0.18443288  0.67487683     0.12400
H453        H  0.13335591  0.23454325  0.58197337     0.12400
C454        C  0.10295106  0.15906770  0.58186809     0.61900
F455        F  0.07111524  0.24040595  0.69897740    -0.23300
F456        F  0.06504883  0.26951780  0.66492867    -0.20600
F457        F  0.12348646  0.29031351  0.67934541    -0.20300
F458        F  0.06682300  0.12834967  0.57634534    -0.20300
F459        F  0.12570716  0.14691789  0.58907610    -0.20600
F460        F  0.11961375  0.17789390  0.55665839    -0.23300
C461        C  0.27060882  0.38452478  0.60706417    -0.06100
C462        C  0.24234213  0.36641670  0.62953594    -0.00200
C463        C  0.25323046  0.36946897  0.65757823    -0.08800
C464        C  0.29251778  0.38907060  0.66174758    -0.06200
C465        C  0.32096022  0.40596585  0.63908165    -0.00200
C466        C  0.31005927  0.40460214  0.61137065    -0.08700
C467        C  0.33960701  0.42501139  0.58671074     0.61700
H468        H  0.26141811  0.38258256  0.58604584     0.12400
H469        H  0.30133549  0.39079335  0.68286366     0.12400
C470        C  0.22378317  0.35290252  0.68316843     0.61900
F471        F  0.32254564  0.42533273  0.56334155    -0.23300
F472        F  0.35934066  0.40727567  0.57782176    -0.20600
F473        F  0.36530376  0.46205278  0.59545452    -0.20300
F474        F  0.20197963  0.31408345  0.67960712    -0.20300
F475        F  0.19997154  0.36670760  0.68568696    -0.20600
F476        F  0.24101596  0.36208931  0.70875185    -0.23300
C477        C  0.11024915  0.36880578  0.59286648    -0.06100
C478        C  0.12854792  0.37181974  0.61712331    -0.00200
C479        C  0.12816979  0.39471081  0.64164176    -0.08800
C480        C  0.10922182  0.41373685  0.64091574    -0.06200
C481        C  0.09042355  0.41000448  0.61700371    -0.00200
C482        C  0.09121044  0.38794022  0.59236724    -0.08700
C483        C  0.07284129  0.38568378  0.56564934     0.61700
H484        H  0.11094539  0.35128853  0.57440919     0.12400
H485        H  0.10826794  0.43125315  0.65928666     0.12400
C486        C  0.14622664  0.39816671  0.66893901     0.61900
F487        F  0.07870093  0.36449432  0.54335387    -0.23300
F488        F  0.08864050  0.42161585  0.55649768    -0.20600
F489        F  0.03361828  0.36930660  0.57175770    -0.20300
F490        F  0.13356447  0.36272571  0.67749330    -0.20300
F491        F  0.13649021  0.41648567  0.69138514    -0.20600
F492        F  0.18585817  0.41864486  0.66423816    -0.23300
C493        C  0.12048241  0.22113491  0.84623560    -0.06100
C494        C  0.11701057  0.24694768  0.86583725    -0.00200
C495        C  0.09404910  0.23429862  0.89206574    -0.08800
C496        C  0.07717495  0.19645830  0.89843942    -0.06200
C497        C  0.08243972  0.17083234  0.87971872    -0.00200
C498        C  0.10313389  0.18299637  0.85239128    -0.08700
C499        C  0.10772164  0.15665362  0.82977993     0.61700
H500        H  0.13792345  0.23153767  0.82624611     0.12400
H501        H  0.06030146  0.18688243  0.91871485     0.12400
C502        C  0.08843770  0.26079924  0.91385443     0.61900
F503        F  0.12563311  0.17387401  0.80410029    -0.23300
F504        F  0.07192288  0.12549506  0.82404767    -0.20600
F505        F  0.12995415  0.14533660  0.83937459    -0.20300
F506        F  0.06697793  0.27201502  0.90290774    -0.20300
F507        F  0.12374898  0.29219688  0.92022643    -0.20600
F508        F  0.06909079  0.24370700  0.93932371    -0.23300
C509        C  0.31091589  0.38236123  0.85608354    -0.06100
C510        C  0.32241108  0.41132204  0.87788519    -0.00200
C511        C  0.29592395  0.42165315  0.88985305    -0.08800
C512        C  0.25762231  0.39921724  0.88253526    -0.06200
C513        C  0.24544548  0.36875002  0.86208982    -0.00200
C514        C  0.27309621  0.36152619  0.84732756    -0.08700
C515        C  0.26356156  0.33332518  0.82170906     0.61700
H516        H  0.33161014  0.37551756  0.84619970     0.12400
H517        H  0.23658155  0.40522793  0.89311601     0.12400
C518        C  0.30780130  0.45687323  0.90938024     0.61900
F519        F  0.29649356  0.33713252  0.80686805    -0.23300
F520        F  0.24445540  0.33909595  0.80279196    -0.20600
F521        F  0.24074750  0.29690684  0.83063462    -0.20300
F522        F  0.34152555  0.48717711  0.89773297    -0.20300
F523        F  0.31311089  0.45134591  0.93641949    -0.20600
F524        F  0.28010095  0.46608406  0.91247874    -0.23300
C525        C  0.13373730  0.39187998  0.88121777    -0.06100
C526        C  0.12684953  0.36810586  0.85623478    -0.00200
C527        C  0.10281950  0.36601693  0.83629338    -0.08800
C528        C  0.08400970  0.38571723  0.84323522    -0.06200
C529        C  0.09068906  0.40913227  0.86833105    -0.00200
C530        C  0.11679624  0.41331858  0.88728725    -0.08700
C531        C  0.12627654  0.43983360  0.91394940     0.61700
H532        H  0.15271638  0.39354103  0.89597369     0.12400
H533        H  0.06458330  0.38371942  0.82874042     0.12400
C534        C  0.09886108  0.34501650  0.80723630     0.61900
F535        F  0.15063723  0.43789959  0.93028500    -0.23300
F536        F  0.09284825  0.43066018  0.93097682    -0.20600
F537        F  0.14440399  0.47660045  0.90597728    -0.20300
F538        F  0.07894128  0.30666329  0.81053443    -0.20300
F539        F  0.13502750  0.35675684  0.79380258    -0.20600
F540        F  0.07930366  0.35179345  0.78943017    -0.23300
C541        C  0.40225302  0.09677968  0.70472796    -0.06100
C542        C  0.40637104  0.08381095  0.72931643    -0.00200
C543        C  0.39189086  0.09086529  0.75662682    -0.08800
C544        C  0.37364423  0.11120394  0.75840158    -0.06200
C545        C  0.36974276  0.12437991  0.73374356    -0.00200
C546        C  0.38369366  0.11667529  0.70638382    -0.08700
C547        C  0.37819707  0.12866763  0.67900805     0.61700
H548        H  0.41344664  0.09079878  0.68409129     0.12400
H549        H  0.36254254  0.11726525  0.77904349     0.12400
C550        C  0.39664348  0.07773826  0.78366320     0.61900
F551        F  0.39417630  0.11853610  0.65480843    -0.23300
F552        F  0.39549815  0.16734675  0.68001810    -0.20600
F553        F  0.33932621  0.11157716  0.67608753    -0.20300
F554        F  0.43539476  0.09476075  0.78707005    -0.20300
F555        F  0.37958961  0.03904051  0.78154187    -0.20600
F556        F  0.37984271  0.08676918  0.80796484    -0.23300
C557        C  0.41009774  0.25989649  0.70894125    -0.06100
C558        C  0.37987589  0.24717266  0.73077372    -0.00200
C559        C  0.37183815  0.27350279  0.74588875    -0.08800
C560        C  0.39123255  0.31029647  0.73631810    -0.06200
C561        C  0.41978967  0.32245691  0.71325453    -0.00200
C562        C  0.43087318  0.29728060  0.70026073    -0.08700
C563        C  0.46427546  0.30916828  0.67737619     0.61700
H564        H  0.41635624  0.23973917  0.69772554     0.12400
H565        H  0.38349174  0.32968187  0.74700348     0.12400
C566        C  0.34374564  0.26492552  0.77234849     0.61900
F567        F  0.47461379  0.28271682  0.67244841    -0.23300
F568        F  0.49618651  0.34287802  0.68610468    -0.20600
F569        F  0.45415822  0.31321789  0.65171931    -0.20300
F570        F  0.33049438  0.23039697  0.78305048    -0.20300
F571        F  0.31273792  0.26587628  0.76570140    -0.20600
F572        F  0.36182549  0.29217902  0.79396002    -0.23300
C573        C  0.18548156  0.10728436  0.73446294    -0.06100
C574        C  0.17602232  0.08415811  0.70894850    -0.00200
C575        C  0.20503702  0.08007094  0.69248086    -0.08800
C576        C  0.24260092  0.10109363  0.70138959    -0.06200
C577        C  0.25217754  0.12527453  0.72614048    -0.00200
C578        C  0.22302176  0.12780294  0.74350274    -0.08700
C579        C  0.23111878  0.15161335  0.77154206     0.61700
H580        H  0.16330221  0.11000599  0.74717940     0.12400
H581        H  0.26538229  0.09936425  0.68865731     0.12400
C582        C  0.19720566  0.05385222  0.66570906     0.61900
F583        F  0.19753610  0.14484128  0.78728812    -0.23300
F584        F  0.25301996  0.18935810  0.76590547    -0.20600
F585        F  0.25063593  0.14355561  0.78831761    -0.20300
F586        F  0.18907855  0.06726731  0.64387339    -0.20300
F587        F  0.16661668  0.01794029  0.67185421    -0.20600
F588        F  0.22858938  0.05114643  0.65568648    -0.23300
C589        C  0.39167272  0.08913228  0.00008739    -0.06100
C590        C  0.40826259  0.08813679  0.97226126    -0.00200
C591        C  0.40873549  0.10950916  0.95088334    -0.08800
C592        C  0.39163220  0.13070923  0.95799129    -0.06200
C593        C  0.37494972  0.13167378  0.98575669    -0.00200
C594        C  0.37544427  0.11121445  0.00738689    -0.08700
C595        C  0.36057405  0.11422983  0.03817825     0.61700
H596        H  0.39251289  0.07326412  0.01625287     0.12400
H597        H  0.39069835  0.14647767  0.94178374     0.12400
C598        C  0.42646000  0.10921366  0.92055922     0.61900
F599        F  0.36442806  0.09269218  0.05600822    -0.23300
F600        F  0.30051179  0.05247885  0.51620000    -0.20600
F601        F  0.38125423  0.15142436  0.04845508    -0.20300
F602        F  0.40913728  0.07257403  0.90901085    -0.20300
F603        F  0.46546697  0.12434001  0.92104572    -0.20600
F604        F  0.42180054  0.13017378  0.90269703    -0.23300
C605        C  0.38824706  0.31391089  0.98933860    -0.06100
C606        C  0.41637259  0.32685062  0.96598078    -0.00200
C607        C  0.42949753  0.30319730  0.95322615    -0.08800
C608        C  0.40956343  0.26556752  0.96108385    -0.06200
C609        C  0.37909174  0.25164024  0.98266814    -0.00200
C610        C  0.37022876  0.27698058  0.99855072    -0.08700
C611        C  0.33716498  0.26253059  0.52578762     0.61700
H612        H  0.37948057  0.33251233  0.99998628     0.12400
H613        H  0.41705191  0.24636764  0.94964501     0.12400
C614        C  0.46428660  0.31692645  0.93145970     0.61900
F615        F  0.30504903  0.24654117  0.01805499    -0.23300
F616        F  0.34922830  0.29714991  0.04276428    -0.20600
F617        F  0.33997139  0.23914045  0.54233797    -0.20300
F618        F  0.49350052  0.35287350  0.93959069    -0.20300
F619        F  0.45403726  0.31697238  0.90458971    -0.20600
F620        F  0.47881435  0.29388850  0.92953958    -0.23300
C621        C  0.22552856  0.11562494  0.50086042    -0.06100
C622        C  0.25490708  0.12708288  0.97831553    -0.00200
C623        C  0.24416227  0.10990574  0.95067039    -0.08800
C624        C  0.20521431  0.09051760  0.94528819    -0.06200
C625        C  0.17672152  0.08851834  0.96622078    -0.00200
C626        C  0.18757903  0.10518308  0.99433094    -0.08700
C627        C  0.15633628  0.08883495  0.52053517     0.61700
H628        H  0.23420527  0.12583926  0.52248627     0.12400
H629        H  0.19700580  0.07760661  0.92406353     0.12400
C630        C  0.27393783  0.11329643  0.92654532     0.61900
F631        F  0.17212371  0.09838645  0.54676878    -0.23300
F632        F  0.12763279  0.05095079  0.52021148    -0.20600
F633        F  0.14052045  0.11007453  0.51864999    -0.20300
F634        F  0.29188905  0.09588491  0.93347560    -0.20300
F635        F  0.30118248  0.15092736  0.92227111    -0.20600
F636        F  0.25755141  0.09657445  0.90083887    -0.23300
C637        C  0.35445056  0.64923839  0.98918132     0.02800
C638        C  0.37325384  0.68872041  0.99217971    -0.13400
C639        C  0.35339959  0.70673096  0.98987169     0.00300
C640        C  0.31411839  0.68435628  0.98498996    -0.11900
C641        C  0.29499917  0.64490425  0.98253127     0.02800
C642        C  0.31511408  0.62748638  0.98490946    -0.11300
H643        H  0.40388052  0.70546229  0.99471400     0.08300
H644        H  0.29889085  0.69764494  0.98137028     0.05900
H645        H  0.30079671  0.59715110  0.98140806     0.05700
C646        C  0.35652333  0.64908890  0.23371875     0.02800
C647        C  0.31664180  0.63053816  0.23246502    -0.13400
C648        C  0.29963223  0.65108711  0.23054112     0.00300
C649        C  0.32233593  0.69055452  0.23156132    -0.11900
C650        C  0.36196342  0.70980469  0.23498279     0.02800
C651        C  0.37891212  0.68870981  0.23592591    -0.11300
H652        H  0.29910054  0.60001998  0.23124790     0.08300
H653        H  0.30940463  0.70620155  0.22833324     0.05900
H654        H  0.40974599  0.70304976  0.23697472     0.05700
C655        C  0.14381788  0.84515099  0.35049675     0.02800
C656        C  0.12192477  0.80586195  0.35248592    -0.13400
C657        C  0.13984431  0.78644994  0.35585016     0.00300
C658        C  0.18000979  0.80642203  0.35648298    -0.11900
C659        C  0.20236049  0.84554487  0.35372992     0.02800
C660        C  0.18404550  0.86458831  0.35041163    -0.11300
H661        H  0.09086050  0.79075564  0.35358834     0.08300
H662        H  0.19345476  0.79181652  0.36116410     0.05900
H663        H  0.20089879  0.89509378  0.35007425     0.05700
C664        C  0.14928465  0.85320359  0.11467161     0.02800
C665        C  0.12655108  0.81381348  0.11051421    -0.13400
C666        C  0.14280058  0.79205727  0.11057667     0.00300
C667        C  0.18260029  0.81024197  0.11221072    -0.11900
C668        C  0.20547881  0.84952434  0.11625743     0.02800
C669        C  0.18890304  0.87094219  0.11663384    -0.11300
H670        H  0.09590304  0.80005873  0.10875833     0.08300
H671        H  0.19541238  0.79356149  0.11231870     0.05900
H672        H  0.20674702  0.90154949  0.11963680     0.05700
N673        N  0.08110126  0.55374498  0.44538988    -0.06500
N674        N  0.10759792  0.56778028  0.46394882    -0.58600
N675        N  0.06069044  0.57765122  0.38807801    -0.06200
N676        N  0.07501818  0.60469268  0.36982863    -0.60700
N677        N  0.04819937  0.58737486  0.41250199    -0.05800
N678        N  0.05364505  0.62097728  0.41131976    -0.58600
N679        N  0.09286358  0.54311932  0.42104278    -0.05400
N680        N  0.12747448  0.54958495  0.42260661    -0.61100
C681        C  0.13632939  0.56469714  0.44962077     0.95700
C682        C  0.07024807  0.63161757  0.38448628     0.95500
N683        N  0.49216745  0.97374561  0.35278363    -0.06700
N684        N  0.47819981  0.96684713  0.32763830    -0.59200
N685        N  0.05792449  0.97166390  0.38647213    -0.04800
N686        N  0.08687198  0.96655538  0.38093471    -0.60400
N687        N  0.02484289  0.93913897  0.38538733    -0.06700
N688        N  0.03066446  0.91125603  0.37896419    -0.59500
N689        N  0.02484438  0.50482366  0.34652949    -0.04400
N690        N  0.03426652  0.52048367  0.32159896    -0.60500
Mn691      Mn  0.05979323  0.52451309  0.38315375     1.18400
C692        C  0.50523984  0.99702968  0.31282996     0.97800
C693        C  0.06943788  0.92878260  0.37655113     0.98400
N694        N  0.47202515  0.55436469  0.45911829    -0.06700
N695        N  0.46679831  0.58275385  0.46331267    -0.63000
N696        N  0.46929249  0.98573050  0.49243408    -0.07300
N697        N  0.46499498  0.97581551  0.02042425    -0.63700
N698        N  0.00510617  0.51605109  0.48588610    -0.06200
N699        N  0.02479800  0.52747848  0.01051062    -0.63300
N700        N  0.43877071  0.52191871  0.45975874    -0.05100
N701        N  0.41011832  0.52759273  0.46437008    -0.64000
Mn702      Mn  0.02699279  0.55246951  0.44975404     1.10700
C703        C  0.42814537  0.56560016  0.46640220     0.99000
C704        C  0.49603931  0.00182753  0.03450226     0.99100
N705        N  0.44611646  0.90216421  0.42650466    -0.06200
N706        N  0.44144449  0.86898722  0.42829729    -0.61600
N707        N  0.40259984  0.94714381  0.41680368    -0.05600
N708        N  0.36786385  0.94041367  0.41546499    -0.58300
N709        N  0.41400469  0.93598874  0.39251824    -0.06900
N710        N  0.38691716  0.92142112  0.37424220    -0.61200
N711        N  0.43366062  0.91231806  0.45081363    -0.05900
N712        N  0.42014117  0.88591604  0.46959398    -0.58400
Mn713      Mn  0.46832948  0.93668369  0.38878607     1.20200
Mn714      Mn  0.43523547  0.96614447  0.45506073     1.10100
Cl715      Cl  0.49767447  0.99541341  0.42253943    -0.86300
C716        C  0.42561600  0.85915167  0.45532655     0.96000
C717        C  0.35823071  0.92470627  0.38878463     0.95800
N718        N  0.08825572  0.56029259  0.19239521    -0.06500
N719        N  0.11739361  0.57730202  0.20884734    -0.58600
N720        N  0.06264192  0.58173535  0.13645659    -0.06200
N721        N  0.07535707  0.60818728  0.11787221    -0.60700
N722        N  0.05209768  0.59214058  0.16150729    -0.05800
N723        N  0.05729555  0.62558952  0.16041513    -0.58600
N724        N  0.09835114  0.54928837  0.16740613    -0.05400
N725        N  0.13438598  0.55850957  0.16646874    -0.61100
C726        C  0.14608620  0.57597839  0.19243056     0.95700
C727        C  0.07168786  0.63547961  0.13307649     0.95500
N728        N  0.49247601  0.97750972  0.10398696    -0.06700
N729        N  0.47614803  0.96908989  0.07968319    -0.59200
N730        N  0.06114160  0.97691788  0.13535687    -0.04800
N731        N  0.08999521  0.97164805  0.13062418    -0.60400
N732        N  0.02802049  0.94439573  0.13656319    -0.06700
N733        N  0.03352067  0.91621447  0.13253329    -0.59500
N734        N  0.02414014  0.50760624  0.09611131    -0.04400
N735        N  0.03255317  0.52138695  0.07052892    -0.60500
Mn736      Mn  0.06166774  0.52864750  0.13131546     1.18400
C737        C  0.50118536  0.99891481  0.06384139     0.97800
C738        C  0.07219060  0.93374117  0.12874233     0.98400
N739        N  0.47767751  0.55654004  0.21181376    -0.06700
N740        N  0.47242260  0.58489556  0.21672292    -0.63000
N741        N  0.48063205  0.99103823  0.24342354    -0.05500
N742        N  0.47240554  0.97587175  0.26835867    -0.63700
N743        N  0.01315006  0.52239040  0.23618260    -0.06200
N744        N  0.02836480  0.52982005  0.26096329    -0.63300
N745        N  0.44436535  0.52416848  0.21203856    -0.05100
N746        N  0.41571995  0.52983197  0.21701546    -0.64000
Mn747      Mn  0.03357207  0.55856970  0.19949120     1.10700
C748        C  0.43373117  0.56778955  0.22014616     0.99000
C749        C  0.50268572  0.00122758  0.28323294     0.99100
N750        N  0.45453312  0.90757900  0.17784579    -0.06200
N751        N  0.45011679  0.87437475  0.17883968    -0.61600
N752        N  0.40797078  0.95059432  0.17169956    -0.05600
N753        N  0.37269079  0.94302079  0.17147873    -0.58300
N754        N  0.41888692  0.94015793  0.14683107    -0.06900
N755        N  0.39133592  0.92542597  0.12914277    -0.61200
N756        N  0.44333587  0.91752336  0.20281680    -0.05900
N757        N  0.43106538  0.89108153  0.22132249    -0.58400
Mn758      Mn  0.47309098  0.94183207  0.14032223     1.20200
Mn759      Mn  0.44341506  0.97035770  0.20830484     1.10100
Cl760      Cl  0.50341338  0.00085116  0.17343289    -0.86300
C761        C  0.43590635  0.86442388  0.20613608     0.96000
C762        C  0.36290966  0.92789642  0.14462978     0.95800
C763        C  0.07860470  0.69713319  0.14338740    -0.06100
C764        C  0.08552383  0.67366341  0.12338077    -0.00200
C765        C  0.10707185  0.68846497  0.09681820    -0.08800
C766        C  0.12320096  0.72700109  0.09257540    -0.06200
C767        C  0.11836676  0.75073466  0.11369856    -0.00200
C768        C  0.09517243  0.73545226  0.13943014    -0.08700
C769        C  0.08987311  0.75969215  0.16372444     0.61700
H770        H  0.06109678  0.68558655  0.16309022     0.12400
H771        H  0.14121347  0.73945060  0.07320069     0.12400
C772        C  0.11392805  0.66456901  0.07321125     0.61900
F773        F  0.07028665  0.73980191  0.18811875    -0.23300
F774        F  0.06900888  0.77320529  0.15521362    -0.20600
F775        F  0.12541100  0.78940497  0.17128582    -0.20300
F776        F  0.07902345  0.63357150  0.06556710    -0.20300
F777        F  0.13590006  0.65283755  0.08263501    -0.20600
F778        F  0.13332766  0.68436793  0.04873285    -0.23300
C779        C  0.27522560  0.89066843  0.10277884    -0.06100
C780        C  0.24576831  0.86814740  0.12326808    -0.00200
C781        C  0.25494007  0.86558941  0.15063237    -0.08800
C782        C  0.29366422  0.88623590  0.15662955    -0.06200
C783        C  0.32322278  0.90837406  0.13612002    -0.00200
C784        C  0.31420689  0.91056594  0.10859167    -0.08700
C785        C  0.34534028  0.93435010  0.08577839     0.61700
H786        H  0.26734861  0.89231239  0.08215155     0.12400
H787        H  0.30129691  0.88467467  0.17738406     0.12400
C788        C  0.22413289  0.84182704  0.17369831     0.61900
F789        F  0.32995435  0.93557199  0.06174286    -0.23300
F790        F  0.36771909  0.91934249  0.07704033    -0.20600
F791        F  0.36834777  0.97090728  0.09679051    -0.20300
F792        F  0.20488252  0.80419565  0.16459216    -0.20300
F793        F  0.19826861  0.85319326  0.17949108    -0.20600
F794        F  0.23956595  0.84521188  0.19915065    -0.23300
C795        C  0.11419168  0.87689107  0.09506789    -0.06100
C796        C  0.13097572  0.87538318  0.11859718    -0.00200
C797        C  0.12810549  0.89311782  0.14555384    -0.08800
C798        C  0.10938181  0.91280741  0.14764983    -0.06200
C799        C  0.09251131  0.91393890  0.12424221    -0.00200
C800        C  0.09458654  0.89584300  0.09754950    -0.08700
C801        C  0.07628217  0.89689429  0.07197798     0.61700
H802        H  0.11627629  0.86277782  0.07485672     0.12400
H803        H  0.10695417  0.92685978  0.16779898     0.12400
C804        C  0.14281622  0.88989127  0.17240800     0.61900
F805        F  0.08281298  0.87874076  0.04763401    -0.23300
F806        F  0.09140193  0.93393100  0.06591760    -0.20600
F807        F  0.03693989  0.87930786  0.07823089    -0.20300
F808        F  0.12720198  0.85240344  0.17687970    -0.20300
F809        F  0.13259960  0.90540295  0.19670505    -0.20600
F810        F  0.18245758  0.90848846  0.16951823    -0.23300
C811        C  0.11959111  0.72062593  0.34116618    -0.06100
C812        C  0.11690887  0.74590978  0.36183867    -0.00200
C813        C  0.09651780  0.73301278  0.38883601    -0.08800
C814        C  0.08045370  0.69510588  0.39447848    -0.06200
C815        C  0.08476526  0.66987258  0.37446943    -0.00200
C816        C  0.10383348  0.68264094  0.34683557    -0.08700
C817        C  0.10884354  0.65728785  0.32349739     0.61700
H818        H  0.13557037  0.73146880  0.32079169     0.12400
H819        H  0.06527410  0.68528779  0.41522439     0.12400
C820        C  0.09317643  0.75944935  0.41215521     0.61900
F821        F  0.12493407  0.67492520  0.29776432    -0.23300
F822        F  0.07346974  0.62515581  0.31834525    -0.20600
F823        F  0.13300969  0.64755343  0.33192288    -0.20300
F824        F  0.07173868  0.77219835  0.40343493    -0.20300
F825        F  0.12940986  0.78993030  0.41770900    -0.20600
F826        F  0.07522348  0.74177990  0.43766591    -0.23300
C827        C  0.30996837  0.88502355  0.35285536    -0.06100
C828        C  0.31908436  0.90801040  0.37851255    -0.00200
C829        C  0.29014719  0.91315151  0.39402558    -0.08800
C830        C  0.25265488  0.89197638  0.38499569    -0.06200
C831        C  0.24328929  0.86756876  0.36043069    -0.00200
C832        C  0.27259367  0.86521795  0.34324642    -0.08700
C833        C  0.26457966  0.84272701  0.31461577     0.61700
H834        H  0.33214878  0.88202264  0.34050955     0.12400
H835        H  0.22982947  0.89388244  0.39742522     0.12400
C836        C  0.29797408  0.94095834  0.41978468     0.61900
F837        F  0.29819730  0.84963120  0.29890160    -0.23300
F838        F  0.24593400  0.85252514  0.29840977    -0.20600
F839        F  0.24166097  0.80459453  0.31904766    -0.20300
F840        F  0.32984434  0.97595350  0.41303884    -0.20300
F841        F  0.30397334  0.92814611  0.44318411    -0.20600
F842        F  0.26739279  0.94563390  0.42778557    -0.23300
C843        C  0.13263841  0.89036037  0.38061710    -0.06100
C844        C  0.12492556  0.86693317  0.35541643    -0.00200
C845        C  0.10017417  0.86520892  0.33627434    -0.08800
C846        C  0.08255421  0.88600486  0.34388112    -0.06200
C847        C  0.09007683  0.90905080  0.36930111    -0.00200
C848        C  0.11599384  0.91189241  0.38777062    -0.08700
C849        C  0.12514034  0.93665561  0.41536078     0.61700
H850        H  0.15181096  0.89140887  0.39487055     0.12400
H851        H  0.06276780  0.88449038  0.32998953     0.12400
C852        C  0.09301272  0.84231036  0.30783301     0.61900
F853        F  0.14852531  0.93277272  0.43134468    -0.23300
F854        F  0.09141981  0.92696224  0.43216211    -0.20600
F855        F  0.14410715  0.97409512  0.40890688    -0.20300
F856        F  0.07028472  0.80427840  0.31262092    -0.20300
F857        F  0.12762247  0.85018425  0.29336492    -0.20600
F858        F  0.07440351  0.85052172  0.29021827    -0.23300
C859        C  0.39413339  0.58693524  0.20192692    -0.06100
C860        C  0.41364142  0.58816041  0.22462103    -0.00200
C861        C  0.41417086  0.60902743  0.25052930    -0.08800
C862        C  0.39512260  0.62858935  0.25272520    -0.06200
C863        C  0.37535153  0.62725387  0.23004307    -0.00200
C864        C  0.37513444  0.60645868  0.20398369    -0.08700
C865        C  0.35573682  0.60528897  0.17813664     0.61700
H866        H  0.39415787  0.57064145  0.18237222     0.12400
H867        H  0.39506187  0.64475877  0.27233690     0.12400
C868        C  0.43333376  0.60919667  0.27605267     0.61900
F869        F  0.36655999  0.59080220  0.15351326    -0.23300
F870        F  0.36575390  0.64121233  0.17282047    -0.20600
F871        F  0.31623621  0.58260364  0.18317916    -0.20300
F872        F  0.47198172  0.62345343  0.26862442    -0.20300
F873        F  0.41586896  0.57274234  0.28459312    -0.20600
F874        F  0.43037759  0.63108699  0.29923902    -0.23300
C875        C  0.41740135  0.76638686  0.21207094    -0.06100
C876        C  0.38610068  0.75155414  0.23297896    -0.00200
C877        C  0.37585709  0.77611866  0.24846353    -0.08800
C878        C  0.39320237  0.81292965  0.23933772    -0.06200
C879        C  0.42239334  0.82687271  0.21673716    -0.00200
C880        C  0.43661914  0.80400712  0.20426249    -0.08700
C881        C  0.47152617  0.81847956  0.18256212     0.61700
H882        H  0.42554497  0.74768954  0.20061776     0.12400
H883        H  0.38334539  0.83076217  0.24984017     0.12400
C884        C  0.34691337  0.76480593  0.27457119     0.61900
F885        F  0.48580208  0.79515179  0.17944221    -0.23300
F886        F  0.50074290  0.85393957  0.19159277    -0.20600
F887        F  0.46160348  0.82007702  0.15599167    -0.20300
F888        F  0.33976697  0.73268630  0.28614392    -0.20300
F889        F  0.31275825  0.75872977  0.26701290    -0.20600
F890        F  0.36101772  0.79349021  0.29582213    -0.23300
C891        C  0.19085593  0.60038772  0.23095932    -0.06100
C892        C  0.18602744  0.59448341  0.20126296    -0.00200
C893        C  0.21926102  0.60787716  0.18136035    -0.08800
C894        C  0.25563582  0.62581956  0.19214727    -0.06200
C895        C  0.26004114  0.63138538  0.22165764    -0.00200
C896        C  0.22745559  0.61867234  0.24151547    -0.08700
C897        C  0.23162653  0.62441683  0.27360521     0.61700
H898        H  0.16556324  0.59035840  0.24600009     0.12400
H899        H  0.28137676  0.63599621  0.17754635     0.12400
C900        C  0.21724649  0.60465307  0.14896295     0.61900
F901        F  0.19646404  0.61082783  0.28940504    -0.23300
F902        F  0.25500972  0.66244544  0.28088840    -0.20600
F903        F  0.24799159  0.60569045  0.28106507    -0.20300
F904        F  0.19762666  0.62039050  0.14197707    -0.20300
F905        F  0.19886055  0.56718429  0.13934983    -0.20600
F906        F  0.25347685  0.62340610  0.13441743    -0.23300
C907        C  0.40280025  0.59778043  0.50019388    -0.06100
C908        C  0.40826717  0.58604569  0.47180677    -0.00200
C909        C  0.39492386  0.59399050  0.44907755    -0.08800
C910        C  0.37735286  0.61478876  0.45543037    -0.06200
C911        C  0.37179034  0.62657645  0.48378088    -0.00200
C912        C  0.38373861  0.61730679  0.50667868    -0.08700
C913        C  0.37488390  0.62668384  0.53765154     0.61700
H914        H  0.41287529  0.59083407  0.51723824     0.12400
H915        H  0.36739330  0.62173966  0.43831904     0.12400
C916        C  0.39928080  0.58039877  0.41834726     0.61900
F917        F  0.38831688  0.61454958  0.55674651    -0.23300
F918        F  0.31146216  0.55491573  0.02658103    -0.20600
F919        F  0.39189133  0.66522398  0.54221244    -0.20300
F920        F  0.38129254  0.54158245  0.41675641    -0.20300
F921        F  0.43790651  0.59647035  0.40951818    -0.20600
F922        F  0.38296792  0.58983420  0.39957566    -0.23300
C923        C  0.37980704  0.80695726  0.48712736    -0.06100
C924        C  0.41136136  0.82162675  0.46638656    -0.00200
C925        C  0.42726143  0.79951087  0.45607379    -0.08800
C926        C  0.40794228  0.76199824  0.46417655    -0.06200
C927        C  0.37483289  0.74648761  0.48346817    -0.00200
C928        C  0.36215538  0.77028134  0.49669307    -0.08700
C929        C  0.33059589  0.76021932  0.02487223     0.61700
H930        H  0.36838061  0.82417226  0.49578299     0.12400
H931        H  0.41782466  0.74394954  0.45435381     0.12400
C932        C  0.46465519  0.81502831  0.43695740     0.61900
F933        F  0.29635256  0.74809227  0.50954766    -0.23300
F934        F  0.33940292  0.78783127  0.54090510    -0.20600
F935        F  0.31984212  0.72666480  0.03609360    -0.20300
F936        F  0.49252793  0.84967174  0.44835128    -0.20300
F937        F  0.45897770  0.81883583  0.40949731    -0.20600
F938        F  0.47852118  0.79140980  0.43487848    -0.23300
C939        C  0.22444740  0.60523232  0.99434161    -0.06100
C940        C  0.25251374  0.62120152  0.47367074    -0.00200
C941        C  0.24390719  0.60845183  0.44489519    -0.08800
C942        C  0.20540421  0.58898235  0.43842074    -0.06200
C943        C  0.17536754  0.58192817  0.45965295    -0.00200
C944        C  0.18396490  0.59279033  0.48888195    -0.08700
C945        C  0.15341007  0.56507051  0.01000504     0.61700
H946        H  0.23064310  0.60831553  0.01656891     0.12400
H947        H  0.19873687  0.58011757  0.41628622     0.12400
C948        C  0.27538459  0.61620896  0.42099875     0.61900
F949        F  0.16682862  0.56403029  0.03519375    -0.23300
F950        F  0.12808649  0.52823358  0.00054851    -0.20600
F951        F  0.13401510  0.58356239  0.01626584    -0.20300
F952        F  0.29533115  0.60025603  0.42668401    -0.20300
F953        F  0.30060831  0.65467473  0.41902509    -0.20600
F954        F  0.26064048  0.60125738  0.39453548    -0.23300
C955        C  0.35104775  0.64640633  0.48829253     0.02800
C956        C  0.37137420  0.68598626  0.48951308    -0.13400
C957        C  0.35248458  0.70482422  0.48660632     0.00300
C958        C  0.31300893  0.68313402  0.48219165    -0.11900
C959        C  0.29257875  0.64366389  0.48163740     0.02800
C960        C  0.31147602  0.62551097  0.48536218    -0.11300
H961        H  0.40218766  0.70193418  0.49114100     0.08300
H962        H  0.29854643  0.69674898  0.47758072     0.05900
H963        H  0.29598819  0.59496455  0.48362197     0.05700
C964        C  0.35746657  0.64529419  0.73034546     0.02800
C965        C  0.31790325  0.62474413  0.72704584    -0.13400
C966        C  0.29870143  0.64339896  0.72579227     0.00300
C967        C  0.31922274  0.68291260  0.72797807    -0.11900
C968        C  0.35870836  0.70405242  0.73222987     0.02800
C969        C  0.37762270  0.68487449  0.73359789    -0.11300
H970        H  0.30247365  0.59430264  0.72385081     0.08300
H971        H  0.30475726  0.69725004  0.72517605     0.05900
H972        H  0.40832471  0.70075631  0.73582182     0.05700
C973        C  0.14010533  0.84622782  0.85517333     0.02800
C974        C  0.11838314  0.80669252  0.85479564    -0.13400
C975        C  0.13581847  0.78689612  0.85834440     0.00300
C976        C  0.17555583  0.80683390  0.86115449    -0.11900
C977        C  0.19776358  0.84623424  0.86073327     0.02800
C978        C  0.17993198  0.86575844  0.85771534    -0.11300
H979        H  0.08759059  0.79147089  0.85379651     0.08300
H980        H  0.18883644  0.79180188  0.86524558     0.05900
H981        H  0.19662277  0.89632405  0.85928893     0.05700
C982        C  0.13689857  0.84607346  0.61930521     0.02800
C983        C  0.11590282  0.80671207  0.61520483    -0.13400
C984        C  0.13380775  0.78669636  0.61614819     0.00300
C985        C  0.17352722  0.80658245  0.61886999    -0.11900
C986        C  0.19462925  0.84597202  0.62262103     0.02800
C987        C  0.17640541  0.86560141  0.62205273    -0.11300
H988        H  0.08535877  0.79165007  0.61245413     0.08300
H989        H  0.18766898  0.79124324  0.61956069     0.05900
H990        H  0.19290593  0.89629590  0.62476149     0.05700
N991        N  0.08498029  0.55621042  0.94451944    -0.06500
N992        N  0.11174468  0.56983813  0.96284007    -0.58600
N993        N  0.06256027  0.57905851  0.88713911    -0.06200
N994        N  0.07495148  0.60526496  0.86840642    -0.60700
N995        N  0.05090403  0.58909432  0.91180586    -0.05800
N996        N  0.05494878  0.62199766  0.91038175    -0.58600
N997        N  0.09628485  0.54561821  0.91993712    -0.05400
N998        N  0.13088632  0.55176837  0.92099873    -0.61100
C999        C  0.14008155  0.56646706  0.94802252     0.95700
C1000       C  0.06989012  0.63198775  0.88317346     0.95500
N1001       N  0.48612271  0.97283607  0.85517512    -0.06700
N1002       N  0.47207661  0.96410231  0.82984822    -0.59200
N1003       N  0.05403615  0.97236462  0.88783326    -0.04800
N1004       N  0.08267377  0.96678528  0.88250043    -0.60400
N1005       N  0.02072485  0.93994854  0.88789150    -0.06700
N1006       N  0.02603195  0.91165178  0.88250322    -0.59500
N1007       N  0.02608636  0.50537377  0.84659343    -0.04400
N1008       N  0.03540008  0.51985927  0.82118820    -0.60500
Mn1009     Mn  0.06188186  0.52607047  0.88274046     1.18400
C1010       C  0.49899248  0.99335521  0.81403799     0.97800
C1011       C  0.06474414  0.92886238  0.87943606     0.98400
N1012       N  0.47598313  0.55696950  0.95735118    -0.06700
N1013       N  0.47155464  0.58584135  0.96064123    -0.63000
N1014       N  0.47196113  0.99023127  0.99523244    -0.07300
N1015       N  0.45897981  0.97122232  0.51793380    -0.63700
N1016       N  0.00945956  0.51935448  0.98580604    -0.06200
N1017       N  0.02012963  0.52378739  0.51067314    -0.63300
N1018       N  0.44236136  0.52494922  0.95769310    -0.05100
N1019       N  0.41426797  0.53150685  0.96149930    -0.64000
Mn1020     Mn  0.03085261  0.55510432  0.94937871     1.10700
C1021       C  0.43302624  0.56965511  0.96288439     0.99000
C1022       C  0.48873175  0.99648278  0.53348422     0.99100
N1023       N  0.44489104  0.90421030  0.93059296    -0.06200
N1024       N  0.43955541  0.87071048  0.93201944    -0.61600
N1025       N  0.39948522  0.94731332  0.92286641    -0.05600
N1026       N  0.36404717  0.93931229  0.92314268    -0.58300
N1027       N  0.40970337  0.93584199  0.89816621    -0.06900
N1028       N  0.38096999  0.91958431  0.88128669    -0.61200
N1029       N  0.43386208  0.91485771  0.95535167    -0.05900
N1030       N  0.42058847  0.88840983  0.97407664    -0.58400
Mn1031     Mn  0.46451004  0.93745334  0.89234522     1.20200
Mn1032     Mn  0.43471862  0.96826780  0.95960071     1.10100
Cl1033     Cl  0.49498405  0.99732177  0.92486728    -0.86300
C1034       C  0.42484319  0.86116373  0.95927285     0.96000
C1035       C  0.35253705  0.92209852  0.89716153     0.95800
N1036       N  0.08722727  0.55550720  0.69041977    -0.06500
N1037       N  0.11623902  0.57035294  0.70685660    -0.58600
N1038       N  0.05863787  0.57663697  0.63552738    -0.06200
N1039       N  0.06938731  0.60276537  0.61707060    -0.60700
N1040       N  0.04879509  0.58664638  0.66099852    -0.05800
N1041       N  0.05244039  0.61945110  0.66040194    -0.58600
N1042       N  0.09665930  0.54496212  0.66500512    -0.05400
N1043       N  0.13193782  0.55213179  0.66372718    -0.61100
C1044       C  0.14408005  0.56799886  0.68991327     0.95700
C1045       C  0.06523686  0.62941359  0.63292176     0.95500
N1046       N  0.47966931  0.97303714  0.60449188    -0.06700
N1047       N  0.46450809  0.96443966  0.57957491    -0.59200
N1048       N  0.04972022  0.96970147  0.63314981    -0.04800
N1049       N  0.07824503  0.96391535  0.62823310    -0.60400
N1050       N  0.01640147  0.93735817  0.63350327    -0.06700
N1051       N  0.02140669  0.90889165  0.62873231    -0.59500
N1052       N  0.02065179  0.50288873  0.59534011    -0.04400
N1053       N  0.02817496  0.51699217  0.57001290    -0.60500
Mn1054     Mn  0.05917144  0.52449884  0.62971215     1.18400
C1055       C  0.49073420  0.99389266  0.56367991     0.97800
C1056       C  0.06000112  0.92594195  0.62518456     0.98400
N1057       N  0.47939713  0.55380490  0.71049300    -0.06700
N1058       N  0.47325306  0.58162885  0.71439940    -0.63000
N1059       N  0.47320975  0.98564888  0.74462281    -0.05500
N1060       N  0.46562869  0.97073422  0.76961972    -0.63700
N1061       N  0.01361426  0.51762690  0.73526120    -0.06200
N1062       N  0.02891790  0.52638622  0.76011413    -0.63300
N1063       N  0.44654710  0.52101721  0.71166241    -0.05100
N1064       N  0.41734900  0.52588070  0.71661446    -0.64000
Mn1065     Mn  0.03234125  0.55328836  0.69862123     1.10700
C1066       C  0.43451841  0.56381134  0.71847354     0.99000
C1067       C  0.49630027  0.99623487  0.78408302     0.99100
N1068       N  0.44302607  0.90235269  0.67798648    -0.06200
N1069       N  0.43871203  0.86908686  0.67813235    -0.61600
N1070       N  0.39793288  0.94748715  0.67504985    -0.05600
N1071       N  0.36335419  0.94193077  0.67598754    -0.58300
N1072       N  0.40741830  0.93720016  0.64951441    -0.06900
N1073       N  0.37939887  0.92439426  0.63253126    -0.61200
N1074       N  0.43332271  0.91220559  0.70361827    -0.05900
N1075       N  0.42207074  0.88550099  0.72171348    -0.58400
Mn1076     Mn  0.46066134  0.93712036  0.64087489     1.20200
Mn1077     Mn  0.43444445  0.96568279  0.71058283     1.10100
Cl1078     Cl  0.49291163  0.99577221  0.67433448    -0.86300
C1079       C  0.42606576  0.85886421  0.70553351     0.96000
C1080       C  0.35239469  0.92810005  0.64918888     0.95800
C1081       C  0.06807824  0.68891075  0.64397870    -0.06100
C1082       C  0.07787903  0.66747482  0.62396072    -0.00200
C1083       C  0.10235051  0.68465466  0.59893897    -0.08800
C1084       C  0.11822382  0.72347031  0.59630932    -0.06200
C1085       C  0.11084703  0.74522423  0.61780151    -0.00200
C1086       C  0.08529214  0.72772622  0.64211936    -0.08700
C1087       C  0.07850413  0.75002285  0.66736966     0.61700
H1088       H  0.04824844  0.67539954  0.66236475     0.12400
H1089       H  0.13796757  0.73766399  0.57804117     0.12400
C1090       C  0.11267355  0.66303120  0.57545624     0.61900
F1091       F  0.05679665  0.72772862  0.69030131    -0.23300
F1092       F  0.05898148  0.76517283  0.65922923    -0.20600
F1093       F  0.11338437  0.77863234  0.67703958    -0.20300
F1094       F  0.07943914  0.63264439  0.56480578    -0.20300
F1095       F  0.13308425  0.65048392  0.58629373    -0.20600
F1096       F  0.13531514  0.68520439  0.55268092    -0.23300
C1097       C  0.26345755  0.89141654  0.60959916    -0.06100
C1098       C  0.23495073  0.86685417  0.62969273    -0.00200
C1099       C  0.24481320  0.86507964  0.65698269    -0.08800
C1100       C  0.28365982  0.88646073  0.66254472    -0.06200
C1101       C  0.31241125  0.90962206  0.64199766    -0.00200
C1102       C  0.30240904  0.91326011  0.61540345    -0.08700
C1103       C  0.33235302  0.94109300  0.59391731     0.61700
H1104       H  0.25486287  0.89328719  0.58935975     0.12400
H1105       H  0.29200970  0.88454492  0.68287898     0.12400
C1106       C  0.21457740  0.84152364  0.68042022     0.61900
F1107       F  0.31565112  0.94352228  0.57121709    -0.23300
F1108       F  0.35750018  0.93005914  0.58275777    -0.20600
F1109       F  0.35275567  0.97659193  0.60739863    -0.20300
F1110       F  0.19668004  0.80366446  0.67220983    -0.20300
F1111       F  0.18741596  0.85133612  0.68547081    -0.20600
F1112       F  0.23048024  0.84698782  0.70608865    -0.23300
C1113       C  0.10198522  0.86729086  0.59670139    -0.06100
C1114       C  0.11726081  0.86672199  0.62143927    -0.00200
C1115       C  0.11278875  0.88488227  0.64758833    -0.08800
C1116       C  0.09449873  0.90469912  0.64756884    -0.06200
C1117       C  0.07961206  0.90550308  0.62279517    -0.00200
C1118       C  0.08264348  0.88619642  0.59702754    -0.08700
C1119       C  0.06558104  0.88566665  0.57015574     0.61700
H1120       H  0.10522752  0.85262517  0.57719059     0.12400
H1121       H  0.09108661  0.91931415  0.66704955     0.12400
C1122       C  0.12581900  0.88233459  0.67560354     0.61900
F1123       F  0.07385371  0.86712326  0.54697535    -0.23300
F1124       F  0.08032810  0.92217987  0.56291024    -0.20600
F1125       F  0.02601948  0.86734975  0.57514139    -0.20300
F1126       F  0.11058551  0.84500148  0.68065835    -0.20300
F1127       F  0.11373524  0.89774085  0.69885128    -0.20600
F1128       F  0.16548360  0.90164995  0.67423898    -0.23300
C1129       C  0.11937662  0.72251047  0.84191463    -0.06100
C1130       C  0.11265100  0.74576624  0.86222015    -0.00200
C1131       C  0.08829160  0.73032419  0.88745699    -0.08800
C1132       C  0.07361932  0.69251288  0.89226284    -0.06200
C1133       C  0.08237668  0.66958715  0.87303616    -0.00200
C1134       C  0.10426473  0.68434934  0.84660104    -0.08700
C1135       C  0.11275206  0.66089885  0.82364463     0.61700
H1136       H  0.13795260  0.73508771  0.82276313     0.12400
H1137       H  0.05611163  0.68101490  0.91193538     0.12400
C1138       C  0.07912678  0.75380530  0.91006203     0.61900
F1139       F  0.13176000  0.68037611  0.79897780    -0.23300
F1140       F  0.07866068  0.62872901  0.81599936    -0.20600
F1141       F  0.13588101  0.65110947  0.83386504    -0.20300
F1142       F  0.05751823  0.76466820  0.89889714    -0.20300
F1143       F  0.11281895  0.78547314  0.91886696    -0.20600
F1144       F  0.05804450  0.73384873  0.93415879    -0.23300
C1145       C  0.30570689  0.88954773  0.85973256    -0.06100
C1146       C  0.31264650  0.90460783  0.88824594    -0.00200
C1147       C  0.28129475  0.90153060  0.90723957    -0.08800
C1148       C  0.24454757  0.88281774  0.89692598    -0.06200
C1149       C  0.23790040  0.86720087  0.86881795    -0.00200
C1150       C  0.26878816  0.87104045  0.84965275    -0.08700
C1151       C  0.26267891  0.85647208  0.81853730     0.61700
H1152       H  0.32948121  0.89229938  0.84523832     0.12400
H1153       H  0.22013564  0.87947267  0.91094624     0.12400
C1154       C  0.28544190  0.91679033  0.93842379     0.61900
F1155       F  0.29661873  0.86394265  0.80306054    -0.23300
F1156       F  0.24820544  0.87366264  0.80569153    -0.20600
F1157       F  0.23684967  0.81790252  0.81714213    -0.20300
F1158       F  0.31162927  0.95533150  0.93963871    -0.20300
F1159       F  0.29740134  0.89908311  0.95347195    -0.20600
F1160       F  0.25103867  0.91056035  0.95223031    -0.23300
C1161       C  0.12543184  0.88855436  0.88599776    -0.06100
C1162       C  0.12059350  0.86739790  0.85980470    -0.00200
C1163       C  0.09787112  0.86716510  0.83953754    -0.08800
C1164       C  0.07983564  0.88760251  0.84679681    -0.06200
C1165       C  0.08487575  0.90867515  0.87302246    -0.00200
C1166       C  0.10820939  0.90956466  0.89288937    -0.08700
C1167       C  0.11395810  0.93175706  0.92158189     0.61700
H1168       H  0.14280893  0.88825320  0.90121177     0.12400
H1169       H  0.06181044  0.88751731  0.83196373     0.12400
C1170       C  0.09356629  0.84657563  0.81021194     0.61900
F1171       F  0.13572759  0.92678299  0.93850171    -0.23300
F1172       F  0.07860439  0.92005652  0.93651355    -0.20600
F1173       F  0.13282637  0.96979947  0.91710222    -0.20300
F1174       F  0.07149392  0.80807588  0.81305708    -0.20300
F1175       F  0.12941463  0.85650348  0.79706279    -0.20600
F1176       F  0.07578457  0.85542759  0.79231230    -0.23300
C1177       C  0.41687408  0.60377913  0.69921872    -0.06100
C1178       C  0.41378452  0.58363502  0.72222524    -0.00200
C1179       C  0.39202874  0.58354776  0.74809568    -0.08800
C1180       C  0.37455197  0.60464420  0.75023942    -0.06200
C1181       C  0.37804911  0.62518243  0.72727768    -0.00200
C1182       C  0.39857366  0.62396303  0.70104460    -0.08700
C1183       C  0.40011168  0.64294853  0.67484795     0.61700
H1184       H  0.43341325  0.60311131  0.67957105     0.12400
H1185       H  0.35795645  0.60529089  0.76985355     0.12400
C1186       C  0.38834236  0.56218957  0.77347503     0.61900
F1187       F  0.41873548  0.63555589  0.65090573    -0.23300
F1188       F  0.41964063  0.68152434  0.68028022    -0.20600
F1189       F  0.36313803  0.62994943  0.66836726    -0.20300
F1190       F  0.42446724  0.57597132  0.78227995    -0.20300
F1191       F  0.37132499  0.52424409  0.76566102    -0.20600
F1192       F  0.36600604  0.56582436  0.79658697    -0.23300
C1193       C  0.41155801  0.76200140  0.70931915    -0.06100
C1194       C  0.38085461  0.74588807  0.73059933    -0.00200
C1195       C  0.36953324  0.76926137  0.74685483    -0.08800
C1196       C  0.38559000  0.80624616  0.73843992    -0.06200
C1197       C  0.41404505  0.82134074  0.71545987    -0.00200
C1198       C  0.42913518  0.79961268  0.70192983    -0.08700
C1199       C  0.46342470  0.81538309  0.67961708     0.61700
H1200       H  0.42055633  0.74426670  0.69731341     0.12400
H1201       H  0.37523084  0.82328342  0.74978942     0.12400
C1202       C  0.34143765  0.75713685  0.77345565     0.61900
F1203       F  0.47890780  0.79307980  0.67524006    -0.23300
F1204       F  0.49217893  0.85105745  0.68871471    -0.20600
F1205       F  0.45218603  0.81700983  0.65362173    -0.20300
F1206       F  0.33100075  0.72242490  0.78220528    -0.20300
F1207       F  0.30867006  0.75581954  0.76813136    -0.20600
F1208       F  0.35837091  0.78325137  0.79594663    -0.23300
C1209       C  0.18997189  0.59410478  0.72775427    -0.06100
C1210       C  0.18390660  0.58435486  0.69837293    -0.00200
C1211       C  0.21607669  0.59230152  0.67830720    -0.08800
C1212       C  0.25286137  0.61089882  0.68854473    -0.06200
C1213       C  0.25866039  0.62188271  0.71758348    -0.00200
C1214       C  0.22691647  0.61281425  0.73770966    -0.08700
C1215       C  0.23231466  0.62323197  0.76947099     0.61700
H1216       H  0.16550554  0.58758302  0.74300046     0.12400
H1217       H  0.27791882  0.61791953  0.67380385     0.12400
C1218       C  0.21266501  0.58253513  0.64618388     0.61900
F1219       F  0.19748803  0.60921177  0.78582332    -0.23300
F1220       F  0.25344638  0.66200905  0.77379970    -0.20600
F1221       F  0.25169998  0.60868767  0.77903747    -0.20300
F1222       F  0.19784645  0.60059946  0.63503261    -0.20300
F1223       F  0.18909544  0.54393919  0.64134638    -0.20600
F1224       F  0.24796842  0.59373675  0.63124512    -0.23300
C1225       C  0.38682442  0.58111964  0.99326105    -0.06100
C1226       C  0.41403861  0.59110486  0.96947705    -0.00200
C1227       C  0.42345864  0.62188750  0.95340097    -0.08800
C1228       C  0.40417527  0.64094189  0.96137167    -0.06200
C1229       C  0.37691037  0.63097533  0.98521875    -0.00200
C1230       C  0.36904259  0.60140238  0.00210704    -0.08700
C1231       C  0.34348439  0.59085947  0.03002611     0.61700
H1232       H  0.38048128  0.55806620  0.00580801     0.12400
H1233       H  0.40969893  0.66347684  0.94863232     0.12400
C1234       C  0.45272866  0.63384003  0.92742202     0.61900
F1235       F  0.36371360  0.59121918  0.05146305    -0.23300
F1236       F  0.33546383  0.60919027  0.54342917    -0.20600
F1237       F  0.33144704  0.61537890  0.03913301    -0.20300
F1238       F  0.44349225  0.60310554  0.90845861    -0.20300
F1239       F  0.48906321  0.64862680  0.93615815    -0.20600
F1240       F  0.45380697  0.66115939  0.91282402    -0.23300
C1241       C  0.37967404  0.80878888  0.99123973    -0.06100
C1242       C  0.41072311  0.82355814  0.97008418    -0.00200
C1243       C  0.42632325  0.80143229  0.95897949    -0.08800
C1244       C  0.40762336  0.76407738  0.96721618    -0.06200
C1245       C  0.37502876  0.74840950  0.98701417    -0.00200
C1246       C  0.36216861  0.77196830  0.00053707    -0.08700
C1247       C  0.33016218  0.75822116  0.52071994     0.61700
H1248       H  0.36846168  0.82601990  0.00043655     0.12400
H1249       H  0.41741280  0.74613042  0.95692358     0.12400
C1250       C  0.46233808  0.81650344  0.93831921     0.61900
F1251       F  0.29870751  0.75677376  0.01506607    -0.23300
F1252       F  0.34344900  0.78765569  0.04706968    -0.20600
F1253       F  0.32444820  0.72839061  0.53490917    -0.20300
F1254       F  0.49075108  0.85196192  0.94807848    -0.20300
F1255       F  0.45389788  0.81835368  0.91124251    -0.20600
F1256       F  0.47699478  0.79353593  0.93591292    -0.23300
C1257       C  0.22275612  0.61270389  0.49525908    -0.06100
C1258       C  0.25541722  0.62221002  0.97342452    -0.00200
C1259       C  0.24847398  0.61744072  0.94409605    -0.08800
C1260       C  0.21028476  0.59832195  0.93681343    -0.06200
C1261       C  0.17904932  0.58319751  0.95780162    -0.00200
C1262       C  0.18603298  0.58508347  0.98696182    -0.08700
C1263       C  0.15290535  0.58349056  0.51338206     0.61700
H1264       H  0.23032691  0.62237370  0.51717938     0.12400
H1265       H  0.20463308  0.59585559  0.91453005     0.12400
C1266       C  0.28137267  0.63229571  0.92063031     0.61900
F1267       F  0.16730544  0.59034550  0.53993893    -0.23300
F1268       F  0.12407943  0.54572322  0.51110910    -0.20600
F1269       F  0.13761161  0.60544307  0.51265119    -0.20300
F1270       F  0.30302525  0.61671087  0.92226659    -0.20300
F1271       F  0.30466317  0.67109709  0.92388441    -0.20600
F1272       F  0.26821800  0.62324676  0.89344670    -0.23300
C1273       C  0.85283899  0.14739516  0.98604936     0.02800
C1274       C  0.87398814  0.18694954  0.98651210    -0.13400
C1275       C  0.85588873  0.20633515  0.98325118     0.00300
C1276       C  0.81634632  0.18544313  0.97928273    -0.11900
C1277       C  0.79503425  0.14600657  0.97927627     0.02800
C1278       C  0.81326028  0.12712813  0.98298548    -0.11300
H1279       H  0.90479910  0.20246708  0.98812650     0.08300
H1280       H  0.80236663  0.19973704  0.97508225     0.05900
H1281       H  0.79705613  0.09657343  0.98182164     0.05700
C1282       C  0.86049569  0.15156936  0.23632114     0.02800
C1283       C  0.82030794  0.13077629  0.23610385    -0.13400
C1284       C  0.80060052  0.14883975  0.23404017     0.00300
C1285       C  0.82159055  0.18823685  0.23267624    -0.11900
C1286       C  0.86166752  0.20980095  0.23457512     0.02800
C1287       C  0.88095359  0.19111245  0.23644371    -0.11300
H1288       H  0.80458362  0.10024887  0.23568715     0.08300
H1289       H  0.80706574  0.20203896  0.22860581     0.05900
H1290       H  0.91205853  0.20712476  0.23627539     0.05700
C1291       C  0.64090469  0.34638491  0.35848793     0.02800
C1292       C  0.62025519  0.30724275  0.36128504    -0.13400
C1293       C  0.63978193  0.28883868  0.36289329     0.00300
C1294       C  0.68023017  0.30979513  0.36072517    -0.11900
C1295       C  0.70122499  0.34884008  0.35712487     0.02800
C1296       C  0.68120447  0.36679016  0.35591012    -0.11300
H1297       H  0.58911448  0.29148366  0.36350689     0.08300
H1298       H  0.69531611  0.29598328  0.36323513     0.05900
H1299       H  0.69700794  0.39712128  0.35439670     0.05700
C1300       C  0.64461644  0.35201492  0.11379661     0.02800
C1301       C  0.62205264  0.31248939  0.11327380    -0.13400
C1302       C  0.63929227  0.29179392  0.11383500     0.00300
C1303       C  0.67944742  0.31069305  0.11307932    -0.11900
C1304       C  0.70217258  0.35012267  0.11396763     0.02800
C1305       C  0.68478017  0.37060148  0.11310602    -0.11300
H1306       H  0.59097742  0.29799717  0.11377014     0.08300
H1307       H  0.69287967  0.29472354  0.11395665     0.05900
H1308       H  0.70250407  0.40130043  0.11336180     0.05700
N1309       N  0.58078480  0.05351844  0.45277468    -0.06500
N1310       N  0.60764616  0.06754038  0.47113681    -0.58600
N1311       N  0.56247058  0.07922372  0.39463552    -0.06200
N1312       N  0.57709546  0.10642694  0.37640631    -0.60700
N1313       N  0.55032754  0.08916397  0.41910914    -0.05800
N1314       N  0.55617484  0.12292059  0.41801558    -0.58600
N1315       N  0.59215526  0.04259907  0.42836655    -0.05400
N1316       N  0.62655424  0.04856203  0.42970968    -0.61100
C1317       C  0.63597946  0.06386812  0.45655430     0.95700
C1318       C  0.57279798  0.13362873  0.39122551     0.95500
N1319       N  0.99159726  0.47237795  0.34619225    -0.06700
N1320       N  0.97767412  0.46522760  0.32095289    -0.59200
N1321       N  0.55488915  0.47307317  0.38556650    -0.04800
N1322       N  0.58361990  0.46752524  0.38200215    -0.60400
N1323       N  0.52164063  0.44064945  0.38530744    -0.06700
N1324       N  0.52707001  0.41235372  0.38142962    -0.59500
N1325       N  0.52557069  0.00600278  0.35321669    -0.04400
N1326       N  0.53512084  0.02182309  0.32835459    -0.60500
Mn1327     Mn  0.55999374  0.02512999  0.39011804     1.18400
C1328       C  0.00454207  0.49546980  0.30603384     0.97800
C1329       C  0.56578931  0.42956819  0.37965837     0.98400
N1330       N  0.97209565  0.05092708  0.45868833    -0.06700
N1331       N  0.96706576  0.07943109  0.46155182    -0.63000
N1332       N  0.97212568  0.48342053  0.48605077    -0.07300
N1333       N  0.96802273  0.47232591  0.01162081    -0.63700
N1334       N  0.50300158  0.01763402  0.49254707    -0.06200
N1335       N  0.52128801  0.03139267  0.01847991    -0.63300
N1336       N  0.93875910  0.01855639  0.45864570    -0.05100
N1337       N  0.91023996  0.02450115  0.46168414    -0.64000
Mn1338     Mn  0.52737554  0.05396267  0.45621314     1.10700
C1339       C  0.92848081  0.06258874  0.46314548     0.99000
C1340       C  0.99867621  0.49790062  0.02620511     0.99100
N1341       N  0.94776325  0.40000826  0.42002001    -0.06200
N1342       N  0.94303528  0.36670244  0.42155534    -0.61600
N1343       N  0.90316304  0.44423898  0.41217458    -0.05600
N1344       N  0.86872416  0.43834686  0.41140352    -0.58300
N1345       N  0.91425335  0.43379962  0.38737959    -0.06900
N1346       N  0.88719284  0.42046684  0.36924619    -0.61200
N1347       N  0.93612575  0.41019830  0.44470110    -0.05900
N1348       N  0.92325695  0.38389540  0.46343701    -0.58400
Mn1349     Mn  0.96881643  0.43513662  0.38237195     1.20200
Mn1350     Mn  0.93659436  0.46325736  0.44971607     1.10100
Cl1351     Cl  0.99800820  0.49380473  0.41620334    -0.86300
C1352       C  0.92806903  0.35693011  0.44882822     0.96000
C1353       C  0.85904881  0.42398376  0.38451031     0.95800
N1354       N  0.58851291  0.06121466  0.19991872    -0.06500
N1355       N  0.61607477  0.07441003  0.21751608    -0.58600
N1356       N  0.56331240  0.08385299  0.14407064    -0.06200
N1357       N  0.57583657  0.11038693  0.12566770    -0.60700
N1358       N  0.55256540  0.09390545  0.16916498    -0.05800
N1359       N  0.55733893  0.12723052  0.16826621    -0.58600
N1360       N  0.59895783  0.05099252  0.17475489    -0.05400
N1361       N  0.63363172  0.05699062  0.17478155    -0.61100
C1362       C  0.64407664  0.07128052  0.20162013     0.95700
C1363       C  0.57173249  0.13733176  0.14096246     0.95500
N1364       N  0.99075595  0.47535078  0.09703752    -0.06700
N1365       N  0.97566818  0.46638502  0.07212907    -0.59200
N1366       N  0.55726316  0.47655788  0.13158563    -0.04800
N1367       N  0.58568153  0.47056609  0.12712215    -0.60400
N1368       N  0.52386267  0.44428147  0.13209435    -0.06700
N1369       N  0.52871706  0.41570897  0.12785606    -0.59500
N1370       N  0.52534402  0.01026784  0.10304989    -0.04400
N1371       N  0.53218978  0.02491471  0.07797154    -0.60500
Mn1372     Mn  0.56312971  0.03137013  0.13831636     1.18400
C1373       C  0.00202094  0.49542652  0.05602817     0.97800
C1374       C  0.56729313  0.43253158  0.12453804     0.98400
N1375       N  0.98188514  0.05876074  0.21383027    -0.06700
N1376       N  0.97718020  0.08747522  0.21886192    -0.63000
N1377       N  0.97972240  0.49010771  0.23663066    -0.05500
N1378       N  0.97147567  0.47481111  0.26153515    -0.63700
N1379       N  0.51375069  0.02358282  0.24309632    -0.06200
N1380       N  0.52883755  0.03136705  0.26794476    -0.63300
N1381       N  0.94838204  0.02656904  0.21447873    -0.05100
N1382       N  0.92011128  0.03280380  0.21996779    -0.64000
Mn1383     Mn  0.53399575  0.05973981  0.20670701     1.10700
C1384       C  0.93859163  0.07087524  0.22284108     0.99000
C1385       C  0.00200702  0.49976574  0.27633310     0.99100
N1386       N  0.95063926  0.40573678  0.17123939    -0.06200
N1387       N  0.94475890  0.37192268  0.17210197    -0.61600
N1388       N  0.90667164  0.45090688  0.16523696    -0.05600
N1389       N  0.87167569  0.44411710  0.16543839    -0.58300
N1390       N  0.91680513  0.43993897  0.14026853    -0.06900
N1391       N  0.88883813  0.42544338  0.12294400    -0.61200
N1392       N  0.94025529  0.41621531  0.19630579    -0.05900
N1393       N  0.92710453  0.38950661  0.21475502    -0.58400
Mn1394     Mn  0.97022808  0.44005166  0.13367656     1.20200
Mn1395     Mn  0.94217557  0.46995307  0.20165328     1.10100
Cl1396     Cl  0.00199511  0.49931280  0.16657911    -0.86300
C1397       C  0.93051688  0.36207499  0.19939571     0.96000
C1398       C  0.86111129  0.42879424  0.13879365     0.95800
C1399       C  0.58141786  0.20022313  0.15172810    -0.06100
C1400       C  0.58508749  0.17524342  0.13109755    -0.00200
C1401       C  0.60253374  0.18799468  0.10314286    -0.08800
C1402       C  0.61785619  0.22600034  0.09782873    -0.06200
C1403       C  0.61597662  0.25112237  0.11915345    -0.00200
C1404       C  0.59680041  0.23800251  0.14645001    -0.08700
C1405       C  0.59389848  0.26390354  0.17052092     0.61700
H1406       H  0.56723468  0.19028374  0.17267383     0.12400
H1407       H  0.63289565  0.23696354  0.07725623     0.12400
C1408       C  0.60604611  0.16254401  0.07906168     0.61900
F1409       F  0.57764388  0.24603287  0.19614265    -0.23300
F1410       F  0.57127429  0.27606643  0.16316926    -0.20600
F1411       F  0.63005153  0.29466186  0.17541852    -0.20300
F1412       F  0.57019556  0.13056731  0.07488450    -0.20300
F1413       F  0.63073133  0.15251801  0.08588715    -0.20600
F1414       F  0.62056072  0.18018315  0.05324219    -0.23300
C1415       C  0.77177151  0.39160249  0.09892197    -0.06100
C1416       C  0.74297309  0.36996784  0.12016099    -0.00200
C1417       C  0.75325712  0.36923175  0.14763407    -0.08800
C1418       C  0.79226589  0.38884770  0.15244945    -0.06200
C1419       C  0.82111051  0.40966885  0.13114451    -0.00200
C1420       C  0.81106754  0.41181805  0.10404919    -0.08700
C1421       C  0.84152155  0.43649576  0.08128779     0.61700
H1422       H  0.76318868  0.39253309  0.07837868     0.12400
H1423       H  0.80063627  0.38776538  0.17304239     0.12400
C1424       C  0.72339093  0.34898077  0.17224284     0.61900
F1425       F  0.82532986  0.43863035  0.05813268    -0.23300
F1426       F  0.86403617  0.42199407  0.07119255    -0.20600
F1427       F  0.86458328  0.47268030  0.09297994    -0.20300
F1428       F  0.70359407  0.31049338  0.16630445    -0.20300
F1429       F  0.69802759  0.36100527  0.17619052    -0.20600
F1430       F  0.73987857  0.35622071  0.19791849    -0.23300
C1431       C  0.60332551  0.36896375  0.09482858    -0.06100
C1432       C  0.62566702  0.37359842  0.11684692    -0.00200
C1433       C  0.62732173  0.39647621  0.14192312    -0.08800
C1434       C  0.60875216  0.41623300  0.14301814    -0.06200
C1435       C  0.58685344  0.41184071  0.12092171    -0.00200
C1436       C  0.58315219  0.38731367  0.09668277    -0.08700
C1437       C  0.55859005  0.38112601  0.07277258     0.61700
H1438       H  0.60157600  0.35053370  0.07629494     0.12400
H1439       H  0.61023343  0.43452968  0.16157587     0.12400
C1440       C  0.64639757  0.39838114  0.16815799     0.61900
F1441       F  0.56056578  0.35764828  0.05049390    -0.23300
F1442       F  0.57104914  0.41531954  0.06174707    -0.20600
F1443       F  0.52050461  0.36468284  0.08337273    -0.20300
F1444       F  0.63232640  0.36229815  0.17603546    -0.20300
F1445       F  0.63902244  0.41734531  0.19149735    -0.20600
F1446       F  0.68580236  0.41705811  0.16226886    -0.23300
C1447       C  0.62023476  0.22290179  0.34807830    -0.06100
C1448       C  0.61856232  0.24833487  0.36925779    -0.00200
C1449       C  0.60004099  0.23550519  0.39674772    -0.08800
C1450       C  0.58497072  0.19776199  0.40231729    -0.06200
C1451       C  0.58755426  0.17219880  0.38156038    -0.00200
C1452       C  0.60449937  0.18475341  0.35348238    -0.08700
C1453       C  0.60596025  0.15854824  0.32912539     0.61700
H1454       H  0.63460148  0.23350210  0.32726446     0.12400
H1455       H  0.57140884  0.18818206  0.42346236     0.12400
C1456       C  0.59703244  0.26165060  0.42052539     0.61900
F1457       F  0.62047402  0.17611186  0.30327514    -0.23300
F1458       F  0.56921731  0.12771170  0.32550289    -0.20600
F1459       F  0.62944317  0.14667013  0.33517570    -0.20300
F1460       F  0.57311048  0.27233987  0.41328533    -0.20300
F1461       F  0.63306019  0.29339243  0.42459669    -0.20600
F1462       F  0.58193345  0.24441410  0.44647940    -0.23300
C1463       C  0.80733414  0.38148150  0.35206854    -0.06100
C1464       C  0.82036321  0.40925877  0.37471119    -0.00200
C1465       C  0.79545510  0.42094023  0.38824484    -0.08800
C1466       C  0.75723236  0.40121062  0.38091228    -0.06200
C1467       C  0.74351686  0.37182285  0.35958721    -0.00200
C1468       C  0.76966081  0.36344951  0.34356204    -0.08700
C1469       C  0.75955121  0.33627462  0.31732767     0.61700
H1470       H  0.82662818  0.37343361  0.34096387     0.12400
H1471       H  0.73714762  0.40764793  0.39286632     0.12400
C1472       C  0.80835344  0.45380678  0.41048574     0.61900
F1473       F  0.78829736  0.35278181  0.29536985    -0.23300
F1474       F  0.72543524  0.32674069  0.30702390    -0.20600
F1475       F  0.75675764  0.30382833  0.32414185    -0.20300
F1476       F  0.84330159  0.48453045  0.40086863    -0.20300
F1477       F  0.81169208  0.44349145  0.43635490    -0.20600
F1478       F  0.78225520  0.46506340  0.41548674    -0.23300
C1479       C  0.62556153  0.38876193  0.38899809    -0.06100
C1480       C  0.62106950  0.36722562  0.36304181    -0.00200
C1481       C  0.59965211  0.36746521  0.34201933    -0.08800
C1482       C  0.58158091  0.38793541  0.34839182    -0.06200
C1483       C  0.58597448  0.40928234  0.37439779    -0.00200
C1484       C  0.60876207  0.41037083  0.39490704    -0.08700
C1485       C  0.61486401  0.43389437  0.42297260     0.61700
H1486       H  0.64272006  0.38870721  0.40453390     0.12400
H1487       H  0.56433402  0.38793925  0.33291165     0.12400
C1488       C  0.59706826  0.34727403  0.31277108     0.61900
F1489       F  0.63566842  0.42880711  0.44079735    -0.23300
F1490       F  0.57967731  0.42391599  0.43749404    -0.20600
F1491       F  0.63496168  0.47170017  0.41733879    -0.20300
F1492       F  0.57726179  0.30883302  0.31574702    -0.20300
F1493       F  0.63371060  0.35946689  0.30014698    -0.20600
F1494       F  0.57816148  0.35424646  0.29449015    -0.23300
C1495       C  0.90600562  0.09689455  0.20313478    -0.06100
C1496       C  0.91911279  0.09193606  0.22724120    -0.00200
C1497       C  0.91410792  0.10755141  0.25449286    -0.08800
C1498       C  0.89508901  0.12724457  0.25677724    -0.06200
C1499       C  0.88128787  0.13157816  0.23265217    -0.00200
C1500       C  0.88723649  0.11665843  0.20529706    -0.08700
C1501       C  0.87358389  0.12134911  0.17848288     0.61700
H1502       H  0.91047847  0.08489958  0.18250546     0.12400
H1503       H  0.89049408  0.13910188  0.27743220     0.12400
C1504       C  0.92837900  0.10284093  0.28091788     0.61900
F1505       F  0.88643552  0.10882046  0.15379214    -0.23300
F1506       F  0.88716066  0.15895162  0.17587194    -0.20600
F1507       F  0.83385968  0.10074702  0.18021305    -0.20300
F1508       F  0.96776695  0.11886168  0.27699038    -0.20300
F1509       F  0.91062163  0.06489707  0.28537078    -0.20600
F1510       F  0.92055454  0.11994706  0.30537880    -0.23300
C1511       C  0.91210001  0.26406642  0.20670266    -0.06100
C1512       C  0.88367397  0.25098035  0.22977394    -0.00200
C1513       C  0.87431875  0.27633930  0.24504361    -0.08800
C1514       C  0.89030058  0.31222403  0.23444840    -0.06200
C1515       C  0.91705754  0.32458001  0.21025094    -0.00200
C1516       C  0.92969940  0.30067280  0.19701016    -0.08700
C1517       C  0.96142603  0.31305958  0.17267700     0.61700
H1518       H  0.91927955  0.24462862  0.19531900     0.12400
H1519       H  0.88154060  0.33076911  0.24530847     0.12400
C1520       C  0.84833880  0.26748840  0.27272648     0.61900
F1521       F  0.97398665  0.28836682  0.16734511    -0.23300
F1522       F  0.99285120  0.34816250  0.17976319    -0.20600
F1523       F  0.94798814  0.31443567  0.14765642    -0.20300
F1524       F  0.83961656  0.23474751  0.28420508    -0.20300
F1525       F  0.81457492  0.26435408  0.26762746    -0.20600
F1526       F  0.86655626  0.29660875  0.29312287    -0.23300
C1527       C  0.69280297  0.10872818  0.23719655    -0.06100
C1528       C  0.68314618  0.08661865  0.21121985    -0.00200
C1529       C  0.71138429  0.08111649  0.19499192    -0.08800
C1530       C  0.74919848  0.10195271  0.20343788    -0.06200
C1531       C  0.75930265  0.12607787  0.22821456    -0.00200
C1532       C  0.73026314  0.12788128  0.24634234    -0.08700
C1533       C  0.73846134  0.14912919  0.27545414     0.61700
H1534       H  0.67095339  0.11170351  0.25018354     0.12400
H1535       H  0.77160079  0.10016478  0.19025614     0.12400
C1536       C  0.70235012  0.05325920  0.16915904     0.61900
F1537       F  0.70491380  0.14131553  0.29178611    -0.23300
F1538       F  0.76075006  0.18742695  0.27193872    -0.20600
F1539       F  0.75769103  0.13889026  0.29057961    -0.20300
F1540       F  0.69659309  0.06671897  0.14603689    -0.20300
F1541       F  0.66985046  0.01869045  0.17600819    -0.20600
F1542       F  0.73210544  0.04743869  0.16075278    -0.23300
C1543       C  0.89183138  0.08396511  0.49617141    -0.06100
C1544       C  0.90901351  0.08355755  0.46848649    -0.00200
C1545       C  0.90918545  0.10464664  0.44704339    -0.08800
C1546       C  0.89082877  0.12471632  0.45386065    -0.06200
C1547       C  0.87344142  0.12498750  0.48147681    -0.00200
C1548       C  0.87442271  0.10497942  0.50321211    -0.08700
C1549       C  0.85811767  0.10680358  0.53373715     0.61700
H1550       H  0.89279670  0.06820938  0.51236557     0.12400
H1551       H  0.88984173  0.14044699  0.43765429     0.12400
C1552       C  0.92845813  0.10568410  0.41710847     0.61900
F1553       F  0.86502601  0.08807337  0.55214221    -0.23300
F1554       F  0.81187998  0.08828314  0.03218747    -0.20600
F1555       F  0.87500204  0.14404118  0.54383256    -0.20300
F1556       F  0.91310396  0.06938946  0.40513746    -0.20300
F1557       F  0.96756505  0.12236462  0.41865136    -0.20600
F1558       F  0.92331660  0.12609620  0.39904376    -0.23300
C1559       C  0.88808793  0.30809309  0.48480992    -0.06100
C1560       C  0.91468921  0.31974634  0.46042277    -0.00200
C1561       C  0.92708010  0.29540191  0.44783335    -0.08800
C1562       C  0.90855320  0.25874262  0.45765701    -0.06200
C1563       C  0.87984810  0.24621421  0.48057321    -0.00200
C1564       C  0.87152252  0.27227581  0.49576163    -0.08700
C1565       C  0.83719199  0.26164080  0.01856434     0.61700
H1566       H  0.87987598  0.32710187  0.49553769     0.12400
H1567       H  0.91525655  0.23887626  0.44646467     0.12400
C1568       C  0.95955146  0.30735643  0.42415932     0.61900
F1569       F  0.81306979  0.26267745  0.51943651    -0.23300
F1570       F  0.86594481  0.29307066  0.54405505    -0.20600
F1571       F  0.82847791  0.22956501  0.03117019    -0.20300
F1572       F  0.99080209  0.34247857  0.43141956    -0.20300
F1573       F  0.94716525  0.30846438  0.39853784    -0.20600
F1574       F  0.97196580  0.28248847  0.41995876    -0.23300
C1575       C  0.72718262  0.12317195  0.99534086    -0.06100
C1576       C  0.75434523  0.12338047  0.47643019    -0.00200
C1577       C  0.74436772  0.11528713  0.44769298    -0.08800
C1578       C  0.70537142  0.09530523  0.44258787    -0.06200
C1579       C  0.67598255  0.08279116  0.46508477    -0.00200
C1580       C  0.68596314  0.08933092  0.49395034    -0.08700
C1581       C  0.66041257  0.10523149  0.01562995     0.61700
H1582       H  0.73751845  0.13696081  0.01601025     0.12400
H1583       H  0.69765878  0.08998215  0.42062353     0.12400
C1584       C  0.77481420  0.12767844  0.42244198     0.61900
F1585       F  0.67823846  0.12014972  0.04102763    -0.23300
F1586       F  0.63008951  0.06869601  0.02021742    -0.20600
F1587       F  0.64660585  0.12685474  0.00948640    -0.20300
F1588       F  0.79687726  0.11244114  0.42361358    -0.20300
F1589       F  0.79831970  0.16654716  0.42337364    -0.20600
F1590       F  0.75867756  0.11599671  0.39627244    -0.23300
C1591       C  0.85351863  0.14567016  0.48622384     0.02800
C1592       C  0.87488928  0.18523681  0.48670940    -0.13400
C1593       C  0.85664213  0.20500354  0.48532393     0.00300
C1594       C  0.81653317  0.18445532  0.48358436    -0.11900
C1595       C  0.79507280  0.14490628  0.48305147     0.02800
C1596       C  0.81359575  0.12571420  0.48477400    -0.11300
H1597       H  0.90594381  0.20048806  0.48666119     0.08300
H1598       H  0.80234915  0.19907990  0.48082044     0.05900
H1599       H  0.79733380  0.09515684  0.48281114     0.05700
C1600       C  0.85047431  0.14271613  0.73447432     0.02800
C1601       C  0.81036488  0.12274488  0.73410618    -0.13400
C1602       C  0.79160663  0.14173242  0.73197346     0.00300
C1603       C  0.81339313  0.18113054  0.73053179    -0.11900
C1604       C  0.85340588  0.20178405  0.73226194     0.02800
C1605       C  0.87176433  0.18228834  0.73442122    -0.11300
H1606       H  0.79398710  0.09219191  0.73360861     0.08300
H1607       H  0.79936469  0.19538966  0.72640718     0.05900
H1608       H  0.90283488  0.19774259  0.73438093     0.05700
C1609       C  0.64322559  0.34667228  0.85365357     0.02800
C1610       C  0.62159543  0.30751763  0.85618849    -0.13400
C1611       C  0.63982327  0.28824389  0.85901183     0.00300
C1612       C  0.68019788  0.30826678  0.85825334    -0.11900
C1613       C  0.70244061  0.34740351  0.85486405     0.02800
C1614       C  0.68353227  0.36625954  0.85243921    -0.11300
H1615       H  0.59048737  0.29240208  0.85770172     0.08300
H1616       H  0.69412597  0.29369466  0.86187294     0.05900
H1617       H  0.70008959  0.39666940  0.85133679     0.05700
C1618       C  0.64463690  0.34877478  0.61520178     0.02800
C1619       C  0.62021416  0.30940501  0.61355445    -0.13400
C1620       C  0.63484608  0.28662250  0.61520089     0.00300
C1621       C  0.67459034  0.30346588  0.61641185    -0.11900
C1622       C  0.69918633  0.34284267  0.61770208     0.02800
C1623       C  0.68419275  0.36525721  0.61614412    -0.11300
H1624       H  0.58952127  0.29659307  0.61249320     0.08300
H1625       H  0.68610530  0.28591626  0.61784803     0.05900
H1626       H  0.70330979  0.39587156  0.61690108     0.05700
N1627       N  0.57965807  0.05863781  0.95200112    -0.06500
N1628       N  0.60749219  0.07411120  0.96957160    -0.58600
N1629       N  0.55668081  0.07956768  0.89443320    -0.06200
N1630       N  0.57081759  0.10592395  0.87560520    -0.60700
N1631       N  0.54520908  0.09039677  0.91880612    -0.05800
N1632       N  0.55112123  0.12406549  0.91701531    -0.58600
N1633       N  0.59014452  0.04674927  0.92769614    -0.05400
N1634       N  0.62508190  0.05371191  0.92830935    -0.61100
C1635       C  0.63571743  0.07063845  0.95462509     0.95700
C1636       C  0.56694477  0.13357681  0.88986485     0.95500
N1637       N  0.99279045  0.47296650  0.84684975    -0.06700
N1638       N  0.97871618  0.46464895  0.82158970    -0.59200
N1639       N  0.55905202  0.47511676  0.88440173    -0.04800
N1640       N  0.58746677  0.46906198  0.87979777    -0.60400
N1641       N  0.52560043  0.44287155  0.88424372    -0.06700
N1642       N  0.53053196  0.41429409  0.87935213    -0.59500
N1643       N  0.51947878  0.00518586  0.85468452    -0.04400
N1644       N  0.52883330  0.01924987  0.82912728    -0.60500
Mn1645     Mn  0.55554249  0.02643164  0.89065057     1.18400
C1646       C  0.00553876  0.49414560  0.80601442     0.97800
C1647       C  0.56918103  0.43102490  0.87686550     0.98400
N1648       N  0.97240258  0.05365039  0.96269932    -0.06700
N1649       N  0.96751333  0.08221286  0.96557085    -0.63000
N1650       N  0.97615815  0.48700730  0.98640876    -0.07300
N1651       N  0.96385113  0.46814764  0.51104103    -0.63700
N1652       N  0.50497568  0.02283613  0.99414728    -0.06200
N1653       N  0.51638276  0.02562785  0.51803361    -0.63300
N1654       N  0.93903958  0.02137387  0.96404965    -0.05100
N1655       N  0.91059044  0.02741272  0.96799839    -0.64000
Mn1656     Mn  0.52548457  0.05740428  0.95699607     1.10700
C1657       C  0.92894342  0.06546749  0.96868825     0.99000
C1658       C  0.99413570  0.49371474  0.52596731     0.99100
N1659       N  0.94985001  0.40257268  0.92130394    -0.06200
N1660       N  0.94449756  0.36906045  0.92282114    -0.61600
N1661       N  0.90508047  0.44647866  0.91327668    -0.05600
N1662       N  0.87012630  0.43959598  0.91276253    -0.58300
N1663       N  0.91593420  0.43556667  0.88858788    -0.06900
N1664       N  0.88828579  0.42095783  0.87084139    -0.61200
N1665       N  0.93849407  0.41306837  0.94594587    -0.05900
N1666       N  0.92512261  0.38672108  0.96470762    -0.58400
Mn1667     Mn  0.97052624  0.43679350  0.88346211     1.20200
Mn1668     Mn  0.93965796  0.46629246  0.95049121     1.10100
Cl1669     Cl  0.00061873  0.49597207  0.91645330    -0.86300
C1670       C  0.92947801  0.35951057  0.95006275     0.96000
C1671       C  0.85990521  0.42406616  0.88612440     0.95800
N1672       N  0.57922262  0.05579281  0.69897544    -0.06500
N1673       N  0.60778148  0.06977086  0.71568367    -0.58600
N1674       N  0.55176874  0.07820159  0.64450806    -0.06200
N1675       N  0.56281752  0.10404894  0.62580199    -0.60700
N1676       N  0.54196460  0.08864306  0.66983660    -0.05800
N1677       N  0.54604507  0.12168258  0.66877216    -0.58600
N1678       N  0.58863569  0.04512567  0.67360069    -0.05400
N1679       N  0.62366359  0.05164384  0.67259430    -0.61100
C1680       C  0.63539200  0.06679773  0.69903369     0.95700
C1681       C  0.55890443  0.13107297  0.64110636     0.95500
N1682       N  0.98780097  0.47013203  0.59633112    -0.06700
N1683       N  0.97216913  0.46114413  0.57161311    -0.59200
N1684       N  0.56078867  0.47626201  0.63038058    -0.04800
N1685       N  0.58992883  0.47134505  0.62618546    -0.60400
N1686       N  0.52787207  0.44352116  0.63140759    -0.06700
N1687       N  0.53378058  0.41564329  0.62787579    -0.59500
N1688       N  0.51296715  0.00536949  0.60368245    -0.04400
N1689       N  0.52121322  0.01957592  0.57830625    -0.60500
Mn1690     Mn  0.55135417  0.02561634  0.63818496     1.18400
C1691       C  0.99769380  0.49075771  0.55564606     0.97800
C1692       C  0.57243980  0.43342544  0.62438846     0.98400
N1693       N  0.96980471  0.04892931  0.71430780    -0.06700
N1694       N  0.96398088  0.07693438  0.71854848    -0.63000
N1695       N  0.98056722  0.48498900  0.73613964    -0.05500
N1696       N  0.97265969  0.47076920  0.76145737    -0.63700
N1697       N  0.50629589  0.01825416  0.74386113    -0.06200
N1698       N  0.52199293  0.02625321  0.76846861    -0.63300
N1699       N  0.93680439  0.01629175  0.71568548    -0.05100
N1700       N  0.90779960  0.02137733  0.72103567    -0.64000
Mn1701     Mn  0.52506548  0.05466662  0.70754113     1.10700
C1702       C  0.92528966  0.05930677  0.72296631     0.99000
C1703       C  0.00303938  0.49674938  0.77599166     0.99100
N1704       N  0.95155610  0.40056180  0.67044763    -0.06200
N1705       N  0.94525889  0.36648454  0.67073528    -0.61600
N1706       N  0.90522145  0.44383764  0.66618684    -0.05600
N1707       N  0.86976389  0.43607426  0.66727950    -0.58300
N1708       N  0.91496098  0.43318206  0.64089667    -0.06900
N1709       N  0.88623776  0.41797318  0.62421561    -0.61200
N1710       N  0.94138753  0.41067877  0.69577871    -0.05900
N1711       N  0.92792010  0.38339979  0.71374927    -0.58400
Mn1712     Mn  0.96922638  0.43480304  0.63297485     1.20200
Mn1713     Mn  0.94198898  0.46385165  0.70182007     1.10100
Cl1714     Cl  0.00068165  0.49406886  0.66582788    -0.86300
C1715       C  0.93085771  0.35595902  0.69789049     0.96000
C1716       C  0.85847245  0.42048924  0.64084827     0.95800
C1717       C  0.56951059  0.19443264  0.65144938    -0.06100
C1718       C  0.57237846  0.16891033  0.63096410    -0.00200
C1719       C  0.59007636  0.18136859  0.60298474    -0.08800
C1720       C  0.60872558  0.22005337  0.59813477    -0.06200
C1721       C  0.60869183  0.24583914  0.61969775    -0.00200
C1722       C  0.58735667  0.23271092  0.64640478    -0.08700
C1723       C  0.58503175  0.25917036  0.67019884     0.61700
H1724       H  0.55437732  0.18453780  0.67218591     0.12400
H1725       H  0.62471921  0.23079598  0.57775111     0.12400
C1726       C  0.58991249  0.15474786  0.57829889     0.61900
F1727       F  0.56506058  0.24075664  0.69509371    -0.23300
F1728       F  0.56618370  0.27472462  0.66146606    -0.20600
F1729       F  0.62164411  0.28755021  0.67686528    -0.20300
F1730       F  0.55278415  0.12414374  0.57561452    -0.20300
F1731       F  0.61357812  0.14253650  0.58314197    -0.20600
F1732       F  0.60303729  0.17209625  0.55233589    -0.23300
C1733       C  0.76839303  0.38333185  0.60227328    -0.06100
C1734       C  0.73990811  0.36121111  0.62348760    -0.00200
C1735       C  0.75050917  0.36031422  0.65076489    -0.08800
C1736       C  0.78970720  0.37991453  0.65521348    -0.06200
C1737       C  0.81823310  0.40114510  0.63379994    -0.00200
C1738       C  0.80771043  0.40382329  0.60710813    -0.08700
C1739       C  0.83762209  0.42938767  0.58446636     0.61700
H1740       H  0.75948302  0.38468665  0.58200777     0.12400
H1741       H  0.79845729  0.37875473  0.67561496     0.12400
C1742       C  0.72080279  0.34033253  0.67556644     0.61900
F1743       F  0.82077998  0.43263344  0.56225780    -0.23300
F1744       F  0.85982308  0.41502799  0.57293968    -0.20600
F1745       F  0.86109731  0.46514096  0.59672239    -0.20300
F1746       F  0.69992298  0.30188020  0.66946012    -0.20300
F1747       F  0.69617045  0.35327085  0.68017021    -0.20600
F1748       F  0.73771435  0.34684168  0.70093098    -0.23300
C1749       C  0.60922891  0.37096245  0.59438537    -0.06100
C1750       C  0.62823174  0.37247838  0.61761130    -0.00200
C1751       C  0.62897722  0.39435037  0.64311580    -0.08800
C1752       C  0.61199027  0.41552795  0.64381443    -0.06200
C1753       C  0.59273751  0.41358815  0.62071875    -0.00200
C1754       C  0.59077558  0.39085929  0.59570194    -0.08700
C1755       C  0.56958166  0.38802465  0.57053097     0.61700
H1756       H  0.60847845  0.35354468  0.57541306     0.12400
H1757       H  0.61228035  0.43269699  0.66283842     0.12400
C1758       C  0.64527383  0.39362385  0.67009216     0.61900
F1759       F  0.57233128  0.36537341  0.54789756    -0.23300
F1760       F  0.58504027  0.42356376  0.56075299    -0.20600
F1761       F  0.53098844  0.37269442  0.57904480    -0.20300
F1762       F  0.62922611  0.35675216  0.67696004    -0.20300
F1763       F  0.63717225  0.41200199  0.69348789    -0.20600
F1764       F  0.68477787  0.41116814  0.66584985    -0.23300
C1765       C  0.61760510  0.22148112  0.84520157    -0.06100
C1766       C  0.61691680  0.24790626  0.86581811    -0.00200
C1767       C  0.59713936  0.23601952  0.89317138    -0.08800
C1768       C  0.58036688  0.19821377  0.89938658    -0.06200
C1769       C  0.58244270  0.17178523  0.87937245    -0.00200
C1770       C  0.60010096  0.18327270  0.85122947    -0.08700
C1771       C  0.60084220  0.15597270  0.82753322     0.61700
H1772       H  0.63272257  0.23133855  0.82441307     0.12400
H1773       H  0.56590196  0.18926030  0.92045781     0.12400
C1774       C  0.59444728  0.26316283  0.91612355     0.61900
F1775       F  0.61510120  0.17242212  0.80124590    -0.23300
F1776       F  0.56389327  0.12520921  0.82445606    -0.20600
F1777       F  0.62413622  0.14411227  0.83408788    -0.20300
F1778       F  0.57199367  0.27485524  0.90759358    -0.20300
F1779       F  0.63076598  0.29420796  0.92058876    -0.20600
F1780       F  0.57784842  0.24655707  0.94218438    -0.23300
C1781       C  0.80843801  0.37947543  0.85406468    -0.06100
C1782       C  0.82066526  0.40769692  0.87642950    -0.00200
C1783       C  0.79479902  0.41852930  0.88930227    -0.08800
C1784       C  0.75707388  0.39874704  0.88072081    -0.06200
C1785       C  0.74441861  0.36958023  0.85917411    -0.00200
C1786       C  0.77114392  0.36090425  0.84463504    -0.08700
C1787       C  0.76213728  0.33268971  0.81912808     0.61700
H1788       H  0.82820083  0.37155374  0.84379915     0.12400
H1789       H  0.73644980  0.40501871  0.89179573     0.12400
C1790       C  0.80611267  0.45047200  0.91220311     0.61900
F1791       F  0.79222523  0.34787053  0.79792620    -0.23300
F1792       F  0.72918740  0.32327874  0.80698367    -0.20600
F1793       F  0.75790550  0.30033675  0.82781885    -0.20300
F1794       F  0.84051272  0.48229345  0.90327252    -0.20300
F1795       F  0.80972697  0.43965645  0.93773411    -0.20600
F1796       F  0.77879435  0.46016369  0.91755986    -0.23300
C1797       C  0.62740458  0.38810544  0.88498665    -0.06100
C1798       C  0.62395516  0.36810927  0.85837944    -0.00200
C1799       C  0.60243185  0.36884171  0.83764688    -0.08800
C1800       C  0.58490168  0.38984556  0.84442984    -0.06200
C1801       C  0.58878577  0.41012266  0.87095992    -0.00200
C1802       C  0.60997071  0.40905595  0.89171529    -0.08700
C1803       C  0.61294500  0.42896620  0.92116264     0.61700
H1804       H  0.64371350  0.38684621  0.90061520     0.12400
H1805       H  0.56822314  0.39085414  0.82899118     0.12400
C1806       C  0.59888460  0.34836732  0.80838263     0.61900
F1807       F  0.63248297  0.42213715  0.93893483    -0.23300
F1808       F  0.57643792  0.41642269  0.93423186    -0.20600
F1809       F  0.63239447  0.46744934  0.91839883    -0.20300
F1810       F  0.57989954  0.31000547  0.81146445    -0.20300
F1811       F  0.63516118  0.36100317  0.79482730    -0.20600
F1812       F  0.57849121  0.35442884  0.79086579    -0.23300
C1813       C  0.90526972  0.09650565  0.70281100    -0.06100
C1814       C  0.90483079  0.07925704  0.72668123    -0.00200
C1815       C  0.88632234  0.08240950  0.75333394    -0.08800
C1816       C  0.86910959  0.10374688  0.75529661    -0.06200
C1817       C  0.87012511  0.12165801  0.73142081    -0.00200
C1818       C  0.88769960  0.11731009  0.70454749    -0.08700
C1819       C  0.88746647  0.13405515  0.67766972     0.61700
H1820       H  0.91955845  0.09342619  0.68266076     0.12400
H1821       H  0.85481944  0.10672830  0.77546992     0.12400
C1822       C  0.88569303  0.06395990  0.77950401     0.61900
F1823       F  0.90293179  0.12336101  0.65346215    -0.23300
F1824       F  0.90907501  0.17289702  0.68081566    -0.20600
F1825       F  0.85011184  0.12205439  0.67306670    -0.20300
F1826       F  0.92299675  0.07744757  0.78543178    -0.20300
F1827       F  0.86654841  0.02531439  0.77422830    -0.20600
F1828       F  0.86726374  0.07129779  0.80361002    -0.23300
C1829       C  0.90223913  0.25349484  0.70173684    -0.06100
C1830       C  0.87650789  0.24260760  0.72639661    -0.00200
C1831       C  0.87194437  0.27007028  0.74336840    -0.08800
C1832       C  0.89106457  0.30687396  0.73362347    -0.06200
C1833       C  0.91512519  0.31736924  0.70787782    -0.00200
C1834       C  0.92203534  0.29037040  0.69217436    -0.08700
C1835       C  0.94961263  0.29946723  0.66525563     0.61700
H1836       H  0.90546374  0.23214508  0.68917276     0.12400
H1837       H  0.88614048  0.32741236  0.74582819     0.12400
C1838       C  0.84664863  0.26090510  0.77141993     0.61900
F1839       F  0.95580781  0.27061697  0.65647933    -0.23300
F1840       F  0.98495181  0.33156710  0.67055532    -0.20600
F1841       F  0.93459256  0.30474828  0.64288223    -0.20300
F1842       F  0.85051606  0.23712976  0.78668863    -0.20300
F1843       F  0.80862304  0.24383260  0.76578655    -0.20600
F1844       F  0.85667661  0.29323930  0.78869034    -0.23300
C1845       C  0.68503067  0.10595185  0.73331276    -0.06100
C1846       C  0.67500929  0.08293849  0.70780114    -0.00200
C1847       C  0.70313362  0.07720864  0.69161696    -0.08800
C1848       C  0.74033741  0.09608726  0.70117066    -0.06200
C1849       C  0.75043455  0.12000605  0.72611559    -0.00200
C1850       C  0.72201711  0.12431461  0.74297503    -0.08700
C1851       C  0.72836615  0.14732212  0.77132797     0.61700
H1852       H  0.66374045  0.11012340  0.74601076     0.12400
H1853       H  0.76256575  0.09335170  0.68856616     0.12400
C1854       C  0.69482891  0.05177759  0.66434099     0.61900
F1855       F  0.70094342  0.12477382  0.79223392    -0.23300
F1856       F  0.72415289  0.17706430  0.76825446    -0.20600
F1857       F  0.76407603  0.16151123  0.78096695    -0.20300
F1858       F  0.68787414  0.06678069  0.64291714    -0.20300
F1859       F  0.66329657  0.01610513  0.66981548    -0.20600
F1860       F  0.72550272  0.04801485  0.65405840    -0.23300
C1861       C  0.88910952  0.08511261  0.99933723    -0.06100
C1862       C  0.90961437  0.08650700  0.97281861    -0.00200
C1863       C  0.91239392  0.10873438  0.95112274    -0.08800
C1864       C  0.89365709  0.12850045  0.95658691    -0.06200
C1865       C  0.87305114  0.12709121  0.98303767    -0.00200
C1866       C  0.87105556  0.10564060  0.00502149    -0.08700
C1867       C  0.85087767  0.10533925  0.03442276     0.61700
H1868       H  0.88787137  0.06824769  0.01569429     0.12400
H1869       H  0.89476497  0.14520838  0.94015669     0.12400
C1870       C  0.93449352  0.11103321  0.92219691     0.61900
F1871       F  0.85576068  0.08588599  0.05356948    -0.23300
F1872       F  0.81878881  0.09048212  0.53433422    -0.20600
F1873       F  0.86573843  0.14194459  0.04557722    -0.20300
F1874       F  0.92144703  0.07513320  0.91005161    -0.20300
F1875       F  0.97330628  0.12911088  0.92580129    -0.20600
F1876       F  0.93000690  0.13089284  0.90316265    -0.23300
C1877       C  0.88535405  0.30878146  0.98344099    -0.06100
C1878       C  0.91518258  0.32209327  0.96126587    -0.00200
C1879       C  0.92948161  0.29891528  0.94992375    -0.08800
C1880       C  0.91058034  0.26193369  0.95907043    -0.06200
C1881       C  0.87895327  0.24776259  0.97971905    -0.00200
C1882       C  0.86769831  0.27238371  0.99348956    -0.08700
C1883       C  0.84627396  0.26424333  0.52380095     0.61700
H1884       H  0.87515602  0.32678105  0.99282525     0.12400
H1885       H  0.91915123  0.24302060  0.94881129     0.12400
C1886       C  0.96400945  0.31232934  0.92791090     0.61900
F1887       F  0.80405321  0.25588428  0.00913494    -0.23300
F1888       F  0.85021885  0.29059378  0.03962510    -0.20600
F1889       F  0.83629512  0.23094459  0.53507512    -0.20300
F1890       F  0.99386281  0.34769190  0.93645749    -0.20300
F1891       F  0.95381431  0.31367367  0.90137509    -0.20600
F1892       F  0.97750777  0.28836249  0.92484194    -0.23300
C1893       C  0.72533811  0.10994537  0.49908756    -0.06100
C1894       C  0.75411522  0.12454593  0.97338475    -0.00200
C1895       C  0.74210581  0.10727885  0.94600764    -0.08800
C1896       C  0.70301886  0.08905602  0.94152321    -0.06200
C1897       C  0.67568297  0.08826114  0.96312896    -0.00200
C1898       C  0.68790905  0.10530491  0.99084208    -0.08700
C1899       C  0.65563661  0.07373949  0.51909555     0.61700
H1900       H  0.73389389  0.11587418  0.52086598     0.12400
H1901       H  0.69379565  0.07591629  0.92052387     0.12400
C1902       C  0.77059266  0.10905922  0.92133214     0.61900
F1903       F  0.67185084  0.07894120  0.54457247    -0.23300
F1904       F  0.63029347  0.03543563  0.51409045    -0.20600
F1905       F  0.63564463  0.09173072  0.52268713    -0.20300
F1906       F  0.78677926  0.08968725  0.92768025    -0.20300
F1907       F  0.79938484  0.14620875  0.91688619    -0.20600
F1908       F  0.75318228  0.09316882  0.89586423    -0.23300
C1909       C  0.85559352  0.64555986  0.98679605     0.02800
C1910       C  0.87534605  0.68529319  0.98929670    -0.13400
C1911       C  0.85582761  0.70399051  0.98782576     0.00300
C1912       C  0.81623867  0.68210222  0.98405480    -0.11900
C1913       C  0.79650265  0.64269425  0.98182826     0.02800
C1914       C  0.81623234  0.62470321  0.98298063    -0.11300
H1915       H  0.90614811  0.70155882  0.99101006     0.08300
H1916       H  0.80104754  0.69571276  0.98127663     0.05900
H1917       H  0.80126360  0.59443605  0.97903569     0.05700
C1918       C  0.85792593  0.64952996  0.23664397     0.02800
C1919       C  0.81802497  0.63022744  0.23486108    -0.13400
C1920       C  0.80008759  0.65009981  0.23341023     0.00300
C1921       C  0.82214300  0.68965298  0.23471563    -0.11900
C1922       C  0.86187240  0.70964699  0.23814490     0.02800
C1923       C  0.87954211  0.68917000  0.23916101    -0.11300
H1924       H  0.80139371  0.59970552  0.23234480     0.08300
H1925       H  0.80863538  0.70486499  0.23177806     0.05900
H1926       H  0.91043456  0.70402174  0.24011930     0.05700
C1927       C  0.64487346  0.84637741  0.35175896     0.02800
C1928       C  0.62251389  0.80696910  0.35273774    -0.13400
C1929       C  0.63968134  0.78664400  0.35529239     0.00300
C1930       C  0.67979803  0.80577415  0.35573858    -0.11900
C1931       C  0.70284228  0.84507753  0.35394274     0.02800
C1932       C  0.68507955  0.86514190  0.35189164    -0.11300
H1933       H  0.59145216  0.79234964  0.35412749     0.08300
H1934       H  0.69258868  0.79037608  0.35999910     0.05900
H1935       H  0.70232695  0.89569426  0.35252665     0.05700
C1936       C  0.65040165  0.85566415  0.11769922     0.02800
C1937       C  0.62711126  0.81613388  0.11612011    -0.13400
C1938       C  0.64310778  0.79450906  0.11783279     0.00300
C1939       C  0.68287404  0.81261958  0.11944473    -0.11900
C1940       C  0.70621716  0.85201024  0.12100631     0.02800
C1941       C  0.69011570  0.87337434  0.11906261    -0.11300
H1942       H  0.59632899  0.80230728  0.11488365     0.08300
H1943       H  0.69539036  0.79599082  0.12110384     0.05900
H1944       H  0.70843899  0.90403979  0.11983440     0.05700
N1945       N  0.58088237  0.55839735  0.45021775    -0.06500
N1946       N  0.60799622  0.57297605  0.46833797    -0.58600
N1947       N  0.55859477  0.57984729  0.39228778    -0.06200
N1948       N  0.57136096  0.60548268  0.37302157    -0.60700
N1949       N  0.54677859  0.59054369  0.41657406    -0.05800
N1950       N  0.55117232  0.62349609  0.41426540    -0.58600
N1951       N  0.59184776  0.54685214  0.42597062    -0.05400
N1952       N  0.62646191  0.55319962  0.42713932    -0.61100
C1953       C  0.63627631  0.56929794  0.45378592     0.95700
C1954       C  0.56636467  0.63262568  0.38689869     0.95500
N1955       N  0.99354597  0.97366234  0.35305279    -0.06700
N1956       N  0.98040530  0.96661596  0.32757694    -0.59200
N1957       N  0.55629285  0.97085808  0.38630642    -0.04800
N1958       N  0.58501036  0.96530649  0.38220644    -0.60400
N1959       N  0.52304563  0.93848616  0.38555346    -0.06700
N1960       N  0.52857293  0.91022962  0.38067544    -0.59500
N1961       N  0.52247383  0.50633614  0.35234204    -0.04400
N1962       N  0.53212347  0.52125446  0.32711465    -0.60500
Mn1963     Mn  0.55787393  0.52693744  0.38859462     1.18400
C1964       C  0.00784849  0.99684545  0.31296322     0.97800
C1965       C  0.56735735  0.92742162  0.37901679     0.98400
N1966       N  0.97220794  0.54967913  0.45340187    -0.06700
N1967       N  0.96709078  0.57813129  0.45727491    -0.63000
N1968       N  0.97038483  0.98487043  0.49278810    -0.07300
N1969       N  0.96608609  0.97380212  0.02113124    -0.63700
N1970       N  0.50551338  0.52165439  0.49168511    -0.06200
N1971       N  0.52228381  0.53169795  0.01613406    -0.63300
N1972       N  0.93889341  0.51731813  0.45383421    -0.05100
N1973       N  0.91032481  0.52322978  0.45822650    -0.64000
Mn1974     Mn  0.52675524  0.55715545  0.45488191     1.10700
C1975       C  0.92845754  0.56134093  0.45997760     0.99000
C1976       C  0.99692119  0.99977663  0.03539958     0.99100
N1977       N  0.94779983  0.90124250  0.42631819    -0.06200
N1978       N  0.94249944  0.86769366  0.42746083    -0.61600
N1979       N  0.90329100  0.94486246  0.41748350    -0.05600
N1980       N  0.86812069  0.93709411  0.41662688    -0.58300
N1981       N  0.91487973  0.93443301  0.39293200    -0.06900
N1982       N  0.88738114  0.91922148  0.37495184    -0.61200
N1983       N  0.93550707  0.91103403  0.45089002    -0.05900
N1984       N  0.92150911  0.88401000  0.46919928    -0.58400
Mn1985     Mn  0.96977038  0.93631888  0.38889879     1.20200
Mn1986     Mn  0.93608230  0.96434138  0.45551412     1.10100
Cl1987     Cl  0.99828337  0.99485650  0.42295045    -0.86300
C1988       C  0.92650943  0.85722195  0.45436954     0.96000
C1989       C  0.85829274  0.92141922  0.39001081     0.95800
N1990       N  0.58755425  0.56108461  0.19756371    -0.06500
N1991       N  0.61676261  0.57698407  0.21395019    -0.58600
N1992       N  0.56100514  0.58364558  0.14255269    -0.06200
N1993       N  0.57339578  0.61043383  0.12436284    -0.60700
N1994       N  0.55075600  0.59365083  0.16789912    -0.05800
N1995       N  0.55578658  0.62714820  0.16738007    -0.58600
N1996       N  0.59728990  0.55050970  0.17223726    -0.05400
N1997       N  0.63301277  0.55881777  0.17103048    -0.61100
C1998       C  0.64508943  0.57533637  0.19713067     0.95700
C1999       C  0.56983424  0.63750825  0.14007685     0.95500
N2000       N  0.99262914  0.97626220  0.10535671    -0.06700
N2001       N  0.97635831  0.96752048  0.08097435    -0.59200
N2002       N  0.56114094  0.97813103  0.13372466    -0.04800
N2003       N  0.59025059  0.97325536  0.12882156    -0.60400
N2004       N  0.52821983  0.94541579  0.13432473    -0.06700
N2005       N  0.53413121  0.91751283  0.12963482    -0.59500
N2006       N  0.52226074  0.51022079  0.10133345    -0.04400
N2007       N  0.52985467  0.52494266  0.07619785    -0.60500
Mn2008     Mn  0.56036494  0.53067339  0.13634744     1.18400
C2009       C  0.00166551  0.99700812  0.06486349     0.97800
C2010       C  0.57285079  0.93539800  0.12601122     0.98400
N2011       N  0.97880685  0.55643915  0.20572096    -0.06700
N2012       N  0.97379471  0.58494135  0.21112580    -0.63000
N2013       N  0.98292821  0.99245562  0.24429464    -0.05500
N2014       N  0.97498271  0.97675081  0.26889349    -0.63700
N2015       N  0.51232694  0.52232072  0.24149987    -0.06200
N2016       N  0.52703270  0.52982343  0.26649247    -0.63300
N2017       N  0.94540351  0.52415676  0.20639551    -0.05100
N2018       N  0.91693876  0.53002844  0.21226360    -0.64000
Mn2019     Mn  0.53265834  0.55919496  0.20530265     1.10700
C2020       C  0.93514491  0.56801743  0.21521494     0.99000
C2021       C  0.00568342  0.00146241  0.28349405     0.99100
N2022       N  0.95438255  0.90775944  0.18022579    -0.06200
N2023       N  0.94930056  0.87431137  0.18147288    -0.61600
N2024       N  0.90961399  0.95250783  0.17361737    -0.05600
N2025       N  0.87477170  0.94599065  0.17356806    -0.58300
N2026       N  0.91969655  0.94101001  0.14889502    -0.06900
N2027       N  0.89190503  0.92647686  0.13145956    -0.61200
N2028       N  0.94353959  0.91823613  0.20509950    -0.05900
N2029       N  0.93083702  0.89184191  0.22380799    -0.58400
Mn2030     Mn  0.97321538  0.94147561  0.14232005     1.20200
Mn2031     Mn  0.94512302  0.97204947  0.20989319     1.10100
Cl2032     Cl  0.00460304  0.00115972  0.17465824    -0.86300
C2033       C  0.93505713  0.86465569  0.20881414     0.96000
C2034       C  0.86428955  0.93024887  0.14699230     0.95800
C2035       C  0.57895338  0.70018521  0.15152874    -0.06100
C2036       C  0.58411305  0.67605997  0.13087808    -0.00200
C2037       C  0.60478327  0.69056029  0.10398946    -0.08800
C2038       C  0.62152435  0.72918834  0.09986952    -0.06200
C2039       C  0.61848479  0.75341432  0.12148528    -0.00200
C2040       C  0.59649438  0.73875986  0.14768485    -0.08700
C2041       C  0.59357251  0.76399640  0.17236112     0.61700
H2042       H  0.56237405  0.68900217  0.17161005     0.12400
H2043       H  0.63875679  0.74133782  0.08016579     0.12400
C2044       C  0.61052116  0.66637107  0.07995653     0.61900
F2045       F  0.57335655  0.74424205  0.19669969    -0.23300
F2046       F  0.57480671  0.78007998  0.16446055    -0.20600
F2047       F  0.62997425  0.79212295  0.17967715    -0.20300
F2048       F  0.57521700  0.63541283  0.07299735    -0.20300
F2049       F  0.63294416  0.65461784  0.08852424    -0.20600
F2050       F  0.62892789  0.68593079  0.05523745    -0.23300
C2051       C  0.77567211  0.89102766  0.10598215    -0.06100
C2052       C  0.74665175  0.87116253  0.12761523    -0.00200
C2053       C  0.75643920  0.87169205  0.15555620    -0.08800
C2054       C  0.79534052  0.89208679  0.16080503    -0.06200
C2055       C  0.82446363  0.91120522  0.13911713    -0.00200
C2056       C  0.81484114  0.91089112  0.11118036    -0.08700
C2057       C  0.84553763  0.93184173  0.08722332     0.61700
H2058       H  0.76732133  0.89048666  0.08494432     0.12400
H2059       H  0.80340120  0.89247708  0.18191814     0.12400
C2060       C  0.72617905  0.85124028  0.17992416     0.61900
F2061       F  0.82973419  0.93229833  0.06314804    -0.23300
F2062       F  0.86581450  0.91446902  0.07917355    -0.20600
F2063       F  0.87061726  0.96880942  0.09650271    -0.20300
F2064       F  0.70659568  0.81280612  0.17373052    -0.20300
F2065       F  0.70059309  0.86299808  0.18362415    -0.20600
F2066       F  0.74223673  0.85822520  0.20577547    -0.23300
C2067       C  0.61405453  0.87642005  0.09609903    -0.06100
C2068       C  0.63258344  0.87816861  0.11976604    -0.00200
C2069       C  0.63167583  0.89922964  0.14534434    -0.08800
C2070       C  0.61247191  0.91828698  0.14606804    -0.06200
C2071       C  0.59362845  0.91601869  0.12262217    -0.00200
C2072       C  0.59439247  0.89517305  0.09712160    -0.08700
C2073       C  0.57513440  0.89347262  0.07111656     0.61700
H2074       H  0.61491195  0.85999583  0.07692245     0.12400
H2075       H  0.61129239  0.93459802  0.16521988     0.12400
C2076       C  0.64929690  0.90049686  0.17222896     0.61900
F2077       F  0.58096215  0.87323709  0.04797150    -0.23300
F2078       F  0.59004138  0.92962210  0.06285885    -0.20600
F2079       F  0.53592743  0.87631148  0.07785795    -0.20300
F2080       F  0.63574922  0.86425157  0.17938703    -0.20300
F2081       F  0.63999635  0.91808595  0.19555061    -0.20600
F2082       F  0.68892463  0.92030957  0.16763179    -0.23300
C2083       C  0.61467949  0.71936495  0.34109145    -0.06100
C2084       C  0.61570705  0.74632556  0.36197094    -0.00200
C2085       C  0.59698800  0.73501131  0.38966044    -0.08800
C2086       C  0.57928807  0.69708787  0.39588079    -0.06200
C2087       C  0.58057679  0.67028238  0.37585261    -0.00200
C2088       C  0.59705149  0.68120417  0.34735471    -0.08700
C2089       C  0.59674099  0.65348250  0.32358798     0.61700
H2090       H  0.62904961  0.72884146  0.32004109     0.12400
H2091       H  0.56571523  0.68857812  0.41722180     0.12400
C2092       C  0.59772597  0.76319653  0.41325891     0.61900
F2093       F  0.60910699  0.66925935  0.29700047    -0.23300
F2094       F  0.55973983  0.62233349  0.32176947    -0.20600
F2095       F  0.62102952  0.64231490  0.32910602    -0.20300
F2096       F  0.57919658  0.77959124  0.40548219    -0.20300
F2097       F  0.63542598  0.79092984  0.41797808    -0.20600
F2098       F  0.57943006  0.74631999  0.43898868    -0.23300
C2099       C  0.81012384  0.88254580  0.35394930    -0.06100
C2100       C  0.81893658  0.90445176  0.38009011    -0.00200
C2101       C  0.78966760  0.90855682  0.39627023    -0.08800
C2102       C  0.75258349  0.88870297  0.38653095    -0.06200
C2103       C  0.74361918  0.86589481  0.36111465    -0.00200
C2104       C  0.77296997  0.86342065  0.34400174    -0.08700
C2105       C  0.76541586  0.84157296  0.31509326     0.61700
H2106       H  0.83245411  0.87994553  0.34143275     0.12400
H2107       H  0.72963130  0.89021688  0.39912905     0.12400
C2108       C  0.79655511  0.93350709  0.42374897     0.61900
F2109       F  0.79908535  0.84752538  0.30003911    -0.23300
F2110       F  0.74851840  0.85294588  0.29853856    -0.20600
F2111       F  0.74120016  0.80338848  0.31892547    -0.20300
F2112       F  0.82781010  0.96954773  0.41891384    -0.20300
F2113       F  0.80292061  0.91840089  0.44545856    -0.20600
F2114       F  0.76530247  0.93660929  0.43329250    -0.23300
C2115       C  0.63239195  0.89053461  0.38283654    -0.06100
C2116       C  0.62591067  0.86821678  0.35707852    -0.00200
C2117       C  0.60102235  0.86645322  0.33802090    -0.08800
C2118       C  0.58178158  0.88561474  0.34628392    -0.06200
C2119       C  0.58807087  0.90758667  0.37215936    -0.00200
C2120       C  0.61425498  0.91073384  0.39058124    -0.08700
C2121       C  0.62210138  0.93439333  0.41869555     0.61700
H2122       H  0.65162895  0.89166682  0.39706447     0.12400
H2123       H  0.56212490  0.88416355  0.33231036     0.12400
C2124       C  0.59626203  0.84609290  0.30858487     0.61900
F2125       F  0.64616582  0.93119884  0.43443654    -0.23300
F2126       F  0.58784843  0.92278311  0.43532176    -0.20600
F2127       F  0.63962001  0.97198408  0.41319060    -0.20300
F2128       F  0.57684579  0.80764789  0.31126432    -0.20300
F2129       F  0.63207502  0.85838603  0.29425630    -0.20600
F2130       F  0.57566004  0.85291921  0.29188373    -0.23300
C2131       C  0.90241208  0.59595240  0.19860901    -0.06100
C2132       C  0.91530126  0.58860587  0.22163126    -0.00200
C2133       C  0.90962472  0.60132153  0.24990801    -0.08800
C2134       C  0.89090881  0.62139341  0.25423675    -0.06200
C2135       C  0.87766994  0.62850495  0.23112174    -0.00200
C2136       C  0.88367389  0.61583371  0.20281172    -0.08700
C2137       C  0.87067148  0.62361059  0.17705770     0.61700
H2138       H  0.90720007  0.58590208  0.17719984     0.12400
H2139       H  0.88615372  0.63138975  0.27567434     0.12400
C2140       C  0.92283534  0.59300159  0.27520317     0.61900
F2141       F  0.88290472  0.61230928  0.15136635    -0.23300
F2142       F  0.88557010  0.66181697  0.17649581    -0.20600
F2143       F  0.83095822  0.60423753  0.17871942    -0.20300
F2144       F  0.96211527  0.60828444  0.27139919    -0.20300
F2145       F  0.90416134  0.55440580  0.27712629    -0.20600
F2146       F  0.91497776  0.60796155  0.30094477    -0.23300
C2147       C  0.91661542  0.76650401  0.21487362    -0.06100
C2148       C  0.88543306  0.75150457  0.23588902    -0.00200
C2149       C  0.87517349  0.77608295  0.25143159    -0.08800
C2150       C  0.89246821  0.81300420  0.24233763    -0.06200
C2151       C  0.92150672  0.82704404  0.21961561    -0.00200
C2152       C  0.93573655  0.80417066  0.20710682    -0.08700
C2153       C  0.97079777  0.81881259  0.18553566     0.61700
H2154       H  0.92489365  0.74792155  0.20339329     0.12400
H2155       H  0.88276515  0.83088278  0.25302253     0.12400
C2156       C  0.84690588  0.76520887  0.27794549     0.61900
F2157       F  0.98514682  0.79555187  0.18240766    -0.23300
F2158       F  0.99990423  0.85423897  0.19474708    -0.20600
F2159       F  0.96108705  0.82055881  0.15892351    -0.20300
F2160       F  0.83635683  0.73102726  0.28790646    -0.20300
F2161       F  0.81424217  0.76351476  0.27180581    -0.20600
F2162       F  0.86369538  0.79229459  0.29992166    -0.23300
C2163       C  0.69113955  0.60144066  0.23510475    -0.06100
C2164       C  0.68522399  0.59282852  0.20560773    -0.00200
C2165       C  0.71775175  0.60260063  0.18544131    -0.08800
C2166       C  0.75448685  0.62077466  0.19576314    -0.06200
C2167       C  0.76003881  0.62970996  0.22503276    -0.00200
C2168       C  0.72807835  0.61971763  0.24516225    -0.08700
C2169       C  0.73327724  0.62850084  0.27705495     0.61700
H2170       H  0.66647163  0.59390837  0.25040602     0.12400
H2171       H  0.77968828  0.62879644  0.18092922     0.12400
C2172       C  0.71471032  0.59519444  0.15312652     0.61900
F2173       F  0.69845675  0.61524627  0.29328908    -0.23300
F2174       F  0.75591917  0.66707339  0.28236365    -0.20600
F2175       F  0.75101912  0.61181570  0.28586677    -0.20300
F2176       F  0.69821888  0.61272484  0.14364773    -0.20300
F2177       F  0.69279228  0.55681568  0.14660442    -0.20600
F2178       F  0.75037206  0.60899910  0.13802373    -0.23300
C2179       C  0.88376393  0.57480155  0.49102189    -0.06100
C2180       C  0.90886199  0.58234717  0.46606272    -0.00200
C2181       C  0.91583152  0.61051622  0.44804990    -0.08800
C2182       C  0.89701986  0.63008472  0.45561034    -0.06200
C2183       C  0.87210164  0.62283029  0.48065765    -0.00200
C2184       C  0.86562179  0.59507165  0.49900197    -0.08700
C2185       C  0.84135251  0.58815342  0.52749591     0.61700
H2186       H  0.87922311  0.55341993  0.50461205     0.12400
H2187       H  0.90140831  0.65121306  0.44181859     0.12400
C2188       C  0.94221548  0.61921875  0.42054773     0.61900
F2189       F  0.84294901  0.56347545  0.54347582    -0.23300
F2190       F  0.80630066  0.57381541  0.02235731    -0.20600
F2191       F  0.85473071  0.62185108  0.54354646    -0.20300
F2192       F  0.93118444  0.58633771  0.40382004    -0.20300
F2193       F  0.97978535  0.63548926  0.42712750    -0.20600
F2194       F  0.94100969  0.64399479  0.40440405    -0.23300
C2195       C  0.88414999  0.80603460  0.48814702    -0.06100
C2196       C  0.91275406  0.81957318  0.46511955    -0.00200
C2197       C  0.92702106  0.79662396  0.45287411    -0.08800
C2198       C  0.90836845  0.75931333  0.46135090    -0.06200
C2199       C  0.87815210  0.74504314  0.48313504    -0.00200
C2200       C  0.86801557  0.76986248  0.49830267    -0.08700
C2201       C  0.83328071  0.75664320  0.02443631     0.61700
H2202       H  0.87439656  0.82397529  0.49858833     0.12400
H2203       H  0.91649311  0.74050976  0.45009669     0.12400
C2204       C  0.96204222  0.81099810  0.43128004     0.61900
F2205       F  0.80626686  0.75323543  0.51992172    -0.23300
F2206       F  0.85741099  0.78982938  0.54585919    -0.20600
F2207       F  0.82491439  0.72402361  0.03591152    -0.20300
F2208       F  0.99131984  0.84629636  0.44054066    -0.20300
F2209       F  0.95249634  0.81290629  0.40464671    -0.20600
F2210       F  0.97610460  0.78749775  0.42816885    -0.23300
C2211       C  0.72801885  0.61747308  0.99698689    -0.06100
C2212       C  0.75338712  0.62259257  0.47538959    -0.00200
C2213       C  0.74338441  0.60989198  0.44685590    -0.08800
C2214       C  0.70468814  0.59181792  0.44128484    -0.06200
C2215       C  0.67572683  0.58642319  0.46306629    -0.00200
C2216       C  0.68575399  0.59840560  0.49193684    -0.08700
C2217       C  0.66044442  0.59790281  0.01619851     0.61700
H2218       H  0.73732069  0.62968814  0.01819556     0.12400
H2219       H  0.69700827  0.58242046  0.41939687     0.12400
C2220       C  0.77358848  0.61611858  0.42221435     0.61900
F2221       F  0.67665554  0.60962103  0.04234043    -0.23300
F2222       F  0.62958967  0.56108504  0.01838210    -0.20600
F2223       F  0.64763801  0.62092534  0.01153231    -0.20300
F2224       F  0.78988644  0.59583735  0.42588899    -0.20300
F2225       F  0.80203795  0.65400359  0.42139024    -0.20600
F2226       F  0.75803760  0.60458893  0.39583167    -0.23300
C2227       C  0.85210251  0.64367921  0.48571815     0.02800
C2228       C  0.87335391  0.68342180  0.48744274    -0.13400
C2229       C  0.85513973  0.70342606  0.48657792     0.00300
C2230       C  0.81517561  0.68297731  0.48430907    -0.11900
C2231       C  0.79391656  0.64346836  0.48236026     0.02800
C2232       C  0.81240466  0.62407404  0.48318752    -0.11300
H2233       H  0.90432335  0.69870346  0.48805726     0.08300
H2234       H  0.80099143  0.69772450  0.48198282     0.05900
H2235       H  0.79623379  0.59370030  0.47961214     0.05700
C2236       C  0.86023295  0.64652013  0.73371980     0.02800
C2237       C  0.82076030  0.62716924  0.73015900    -0.13400
C2238       C  0.80264927  0.64704598  0.72959176     0.00300
C2239       C  0.82424764  0.68653257  0.73258940    -0.11900
C2240       C  0.86366957  0.70636487  0.73692272     0.02800
C2241       C  0.88134443  0.68598572  0.73793424    -0.11300
H2242       H  0.80466809  0.59684501  0.72605258     0.08300
H2243       H  0.81071029  0.70190503  0.73022260     0.05900
H2244       H  0.91200668  0.70093675  0.74013774     0.05700
C2245       C  0.64257973  0.84963741  0.85764144     0.02800
C2246       C  0.62063971  0.81007247  0.85753087    -0.13400
C2247       C  0.63825832  0.79016945  0.86025923     0.00300
C2248       C  0.67816187  0.81002116  0.86248020    -0.11900
C2249       C  0.70053018  0.84948464  0.86189500     0.02800
C2250       C  0.68251565  0.86901172  0.85933158    -0.11300
H2251       H  0.58963920  0.79501631  0.85719544     0.08300
H2252       H  0.69120864  0.79489899  0.86681132     0.05900
H2253       H  0.69932962  0.89958703  0.86037135     0.05700
C2254       C  0.63817602  0.84974643  0.61630456     0.02800
C2255       C  0.61586285  0.81015759  0.61428033    -0.13400
C2256       C  0.63278819  0.78937438  0.61600731     0.00300
C2257       C  0.67256062  0.80846297  0.61826609    -0.11900
C2258       C  0.69500821  0.84792552  0.62035341     0.02800
C2259       C  0.67796925  0.86838403  0.61811577    -0.11300
H2260       H  0.58511242  0.79561163  0.61257364     0.08300
H2261       H  0.68575664  0.79249171  0.62002329     0.05900
H2262       H  0.69561599  0.89910338  0.61904289     0.05700
N2263       N  0.58413708  0.55953566  0.94998994    -0.06500
N2264       N  0.61098794  0.57344455  0.96828533    -0.58600
N2265       N  0.56317702  0.58282299  0.89207990    -0.06200
N2266       N  0.57550056  0.60899676  0.87327457    -0.60700
N2267       N  0.55099888  0.59271977  0.91657251    -0.05800
N2268       N  0.55450256  0.62534038  0.91493490    -0.58600
N2269       N  0.59532732  0.54840429  0.92562422    -0.05400
N2270       N  0.62967832  0.55424119  0.92690685    -0.61100
C2271       C  0.63924709  0.56970629  0.95369709     0.95700
C2272       C  0.56968566  0.63542000  0.88780272     0.95500
N2273       N  0.98740434  0.97316968  0.85602226    -0.06700
N2274       N  0.97284473  0.96438618  0.83089936    -0.59200
N2275       N  0.55268704  0.97270591  0.88749844    -0.04800
N2276       N  0.58158719  0.96748834  0.88280073    -0.60400
N2277       N  0.51957221  0.94014156  0.88763886    -0.06700
N2278       N  0.52529780  0.91204390  0.88287560    -0.59500
N2279       N  0.52752654  0.50933880  0.85140674    -0.04400
N2280       N  0.53751754  0.52385084  0.82598965    -0.60500
Mn2281     Mn  0.56230106  0.52947505  0.88790962     1.18400
C2282       C  0.99946412  0.99344418  0.81487075     0.97800
C2283       C  0.56409112  0.92960463  0.88016090     0.98400
N2284       N  0.97626492  0.55264091  0.95339986    -0.06700
N2285       N  0.97145127  0.58126961  0.95698481    -0.63000
N2286       N  0.97333816  0.98837442  0.99596748    -0.07300
N2287       N  0.96057477  0.97014859  0.51816760    -0.63700
N2288       N  0.50771825  0.52340225  0.99105921    -0.06200
N2289       N  0.52107423  0.52960748  0.51628662    -0.63300
N2290       N  0.94279944  0.52045098  0.95404898    -0.05100
N2291       N  0.91444271  0.52660198  0.95831152    -0.64000
Mn2292     Mn  0.53022420  0.55891254  0.95425962     1.10700
C2293       C  0.93285546  0.56468602  0.95968985     0.99000
C2294       C  0.98988636  0.99595487  0.53385645     0.99100
N2295       N  0.94560265  0.90303946  0.93051862    -0.06200
N2296       N  0.93980231  0.86922190  0.93131624    -0.61600
N2297       N  0.90128771  0.94777155  0.92363952    -0.05600
N2298       N  0.86673453  0.94188749  0.92334864    -0.58300
N2299       N  0.91175121  0.93698617  0.89874333    -0.06900
N2300       N  0.88417917  0.92340388  0.88109197    -0.61200
N2301       N  0.93447595  0.91317332  0.95546759    -0.05900
N2302       N  0.92064968  0.88602521  0.97369596    -0.58400
Mn2303     Mn  0.96586578  0.93751647  0.89283193     1.20200
Mn2304     Mn  0.93609221  0.96712488  0.96046565     1.10100
Cl2305     Cl  0.99656240  0.99680471  0.92577641    -0.86300
C2306       C  0.92467831  0.85887739  0.95838944     0.96000
C2307       C  0.85618638  0.92687318  0.89669657     0.95800
N2308       N  0.59053836  0.56086092  0.69541699    -0.06500
N2309       N  0.61989421  0.57648051  0.71163978    -0.58600
N2310       N  0.56120374  0.58139874  0.64073542    -0.06200
N2311       N  0.57135994  0.60725224  0.62220582    -0.60700
N2312       N  0.55123997  0.59140430  0.66616503    -0.05800
N2313       N  0.55426217  0.62396157  0.66544508    -0.58600
N2314       N  0.59993749  0.55022378  0.67000697    -0.05400
N2315       N  0.63551118  0.55812432  0.66847026    -0.61100
C2316       C  0.64786667  0.57459832  0.69448053     0.95700
C2317       C  0.56679182  0.63375952  0.63789229     0.95500
N2318       N  0.98123632  0.97108181  0.60442447    -0.06700
N2319       N  0.96604883  0.96300091  0.57956187    -0.59200
N2320       N  0.54845169  0.97181217  0.63277121    -0.04800
N2321       N  0.57707730  0.96623512  0.62748232    -0.60400
N2322       N  0.51518501  0.93941190  0.63333520    -0.06700
N2323       N  0.52039235  0.91105933  0.62829744    -0.59500
N2324       N  0.52358514  0.50761591  0.60046932    -0.04400
N2325       N  0.53047954  0.52228286  0.57545101    -0.60500
Mn2326     Mn  0.56228650  0.52936813  0.63479359     1.18400
C2327       C  0.99215602  0.99283556  0.56393735     0.97800
C2328       C  0.55905204  0.92829995  0.62441442     0.98400
N2329       N  0.97726329  0.55012981  0.70552321    -0.06700
N2330       N  0.97191774  0.57843783  0.70995528    -0.63000
N2331       N  0.97330565  0.98369253  0.74496680    -0.05500
N2332       N  0.96575124  0.96950873  0.77032205    -0.63700
N2333       N  0.51663280  0.52195094  0.73997528    -0.06200
N2334       N  0.53176862  0.53069947  0.76488471    -0.63300
N2335       N  0.94409815  0.51765460  0.70693856    -0.05100
N2336       N  0.91542090  0.52325597  0.71267035    -0.64000
Mn2337     Mn  0.53508192  0.55786891  0.70363151     1.10700
C2338       C  0.93332076  0.56129189  0.71453942     0.99000
C2339       C  0.99631500  0.99561539  0.78476370     0.99100
N2340       N  0.94479535  0.90023835  0.67819792    -0.06200
N2341       N  0.94230948  0.86788477  0.67918354    -0.61600
N2342       N  0.89814543  0.94374065  0.67446448    -0.05600
N2343       N  0.86342925  0.93787856  0.67514542    -0.58300
N2344       N  0.90801624  0.93376977  0.64894888    -0.06900
N2345       N  0.88014455  0.92088155  0.63174655    -0.61200
N2346       N  0.93519237  0.91052130  0.70369207    -0.05900
N2347       N  0.92586063  0.88522659  0.72248829    -0.58400
Mn2348     Mn  0.96189277  0.93468357  0.64073313     1.20200
Mn2349     Mn  0.93490363  0.96292236  0.71025225     1.10100
Cl2350     Cl  0.99367480  0.99340514  0.67426460    -0.86300
C2351       C  0.93083710  0.85888598  0.70697110     0.96000
C2352       C  0.85271982  0.92412085  0.64824711     0.95800
C2353       C  0.57030105  0.69401386  0.64842162    -0.06100
C2354       C  0.57844661  0.67136776  0.62833434    -0.00200
C2355       C  0.59990565  0.68672578  0.60188497    -0.08800
C2356       C  0.61468271  0.72497880  0.59776468    -0.06200
C2357       C  0.60911140  0.74806960  0.61905321    -0.00200
C2358       C  0.58600942  0.73231612  0.64468636    -0.08700
C2359       C  0.57991382  0.75614982  0.66895931     0.61700
H2360       H  0.55286246  0.68195458  0.66805418     0.12400
H2361       H  0.63258200  0.73787752  0.57846409     0.12400
C2362       C  0.60879057  0.66395556  0.57849576     0.61900
F2363       F  0.56009093  0.73584756  0.69314547    -0.23300
F2364       F  0.55887345  0.76930842  0.66019079    -0.20600
F2365       F  0.61504508  0.78634498  0.67691076    -0.20300
F2366       F  0.57490896  0.63190855  0.57036242    -0.20300
F2367       F  0.63192385  0.65398152  0.58846502    -0.20600
F2368       F  0.62808581  0.68416766  0.55418929    -0.23300
C2369       C  0.76491096  0.88999932  0.60721955    -0.06100
C2370       C  0.73533334  0.86787108  0.62780863    -0.00200
C2371       C  0.74441545  0.86684534  0.65564950    -0.08800
C2372       C  0.78321484  0.88623069  0.66131224    -0.06200
C2373       C  0.81293998  0.90689796  0.64038653    -0.00200
C2374       C  0.80389020  0.91000181  0.61314684    -0.08700
C2375       C  0.83493242  0.93553351  0.59102632     0.61700
H2376       H  0.75715987  0.89136961  0.58645653     0.12400
H2377       H  0.79068834  0.88471528  0.68214207     0.12400
C2378       C  0.71345883  0.84621207  0.67960878     0.61900
F2379       F  0.81938984  0.93870703  0.56790896    -0.23300
F2380       F  0.85759544  0.92130526  0.58063559    -0.20600
F2381       F  0.85768392  0.97127977  0.60353351    -0.20300
F2382       F  0.69341474  0.80784026  0.67312122    -0.20300
F2383       F  0.68833700  0.85853783  0.68305281    -0.20600
F2384       F  0.72881682  0.85257343  0.70568041    -0.23300
C2385       C  0.59885493  0.86766885  0.59529326    -0.06100
C2386       C  0.61922263  0.87129658  0.61841742    -0.00200
C2387       C  0.61885206  0.89310732  0.64367830    -0.08800
C2388       C  0.59967161  0.91216533  0.64418563    -0.06200
C2389       C  0.57927407  0.90829617  0.62122782    -0.00200
C2390       C  0.57823242  0.88552033  0.59646899    -0.08700
C2391       C  0.55560556  0.88034302  0.57152497     0.61700
H2392       H  0.59879836  0.85027683  0.57653167     0.12400
H2393       H  0.59952513  0.92953385  0.66290259     0.12400
C2394       C  0.63644023  0.89470126  0.67069077     0.61900
F2395       F  0.56066621  0.85928540  0.54865725    -0.23300
F2396       F  0.56748260  0.91512465  0.56191331    -0.20600
F2397       F  0.51680535  0.86185588  0.58039928    -0.20300
F2398       F  0.62313846  0.85853765  0.67791818    -0.20300
F2399       F  0.62666244  0.91206117  0.69390097    -0.20600
F2400       F  0.67608541  0.91485738  0.66634558    -0.23300
C2401       C  0.61406143  0.72345193  0.84394758    -0.06100
C2402       C  0.61480281  0.74945563  0.86570828    -0.00200
C2403       C  0.59694092  0.73698053  0.89334455    -0.08800
C2404       C  0.58109886  0.69913364  0.89881679    -0.06200
C2405       C  0.58264485  0.67327777  0.87780901    -0.00200
C2406       C  0.59760508  0.68515326  0.84932522    -0.08700
C2407       C  0.59664456  0.65815954  0.82469523     0.61700
H2408       H  0.62765705  0.73374629  0.82290493     0.12400
H2409       H  0.56847014  0.68992296  0.92020747     0.12400
C2410       C  0.59576281  0.76383090  0.91734906     0.61900
F2411       F  0.60725615  0.67452444  0.79841455    -0.23300
F2412       F  0.55974101  0.62664497  0.82355941    -0.20600
F2413       F  0.62188942  0.64742904  0.82847258    -0.20300
F2414       F  0.57397238  0.77707332  0.91015773    -0.20300
F2415       F  0.63264059  0.79396129  0.92164160    -0.20600
F2416       F  0.57953279  0.74642288  0.94314866    -0.23300
C2417       C  0.80820865  0.88991174  0.86063893    -0.06100
C2418       C  0.81687450  0.91073956  0.88721022    -0.00200
C2419       C  0.78740614  0.91373807  0.90418424    -0.08800
C2420       C  0.75006166  0.89335771  0.89478504    -0.06200
C2421       C  0.74120791  0.87090696  0.86913463    -0.00200
C2422       C  0.77085838  0.87000887  0.85122815    -0.08700
C2423       C  0.76324757  0.84841528  0.82223320     0.61700
H2424       H  0.83073776  0.88833498  0.84745800     0.12400
H2425       H  0.72690323  0.89404706  0.90781791     0.12400
C2426       C  0.79437442  0.93782355  0.93214236     0.61900
F2427       F  0.79707705  0.85631648  0.80631326    -0.23300
F2428       F  0.74405611  0.85809445  0.80653675    -0.20600
F2429       F  0.74110773  0.81011736  0.82607459    -0.20300
F2430       F  0.82509564  0.97424654  0.92769583    -0.20300
F2431       F  0.80173317  0.92244211  0.95304092    -0.20600
F2432       F  0.76277025  0.93996430  0.94258797    -0.23300
C2433       C  0.62903465  0.89389541  0.88684211    -0.06100
C2434       C  0.62333784  0.87107927  0.86139865    -0.00200
C2435       C  0.59863388  0.86838350  0.84165738    -0.08800
C2436       C  0.57869959  0.88690043  0.84909131    -0.06200
C2437       C  0.58487150  0.90994017  0.87434166    -0.00200
C2438       C  0.61081260  0.91408558  0.89339502    -0.08700
C2439       C  0.61870389  0.93924282  0.92073959     0.61700
H2440       H  0.64799095  0.89570488  0.90169294     0.12400
H2441       H  0.55918352  0.88451950  0.83445448     0.12400
C2442       C  0.59328692  0.84798977  0.81220736     0.61900
F2443       F  0.64101654  0.93553294  0.93801359    -0.23300
F2444       F  0.58439263  0.92996480  0.93648164    -0.20600
F2445       F  0.63816927  0.97653893  0.91376453    -0.20300
F2446       F  0.55558611  0.81797253  0.81130475    -0.20300
F2447       F  0.61737589  0.83463787  0.80510010    -0.20600
F2448       F  0.60090810  0.87258626  0.79152315    -0.23300
C2449       C  0.91658915  0.60361405  0.69822954    -0.06100
C2450       C  0.91360902  0.58206518  0.72014602    -0.00200
C2451       C  0.89385811  0.58230896  0.74702187    -0.08800
C2452       C  0.87739304  0.60440153  0.75104114    -0.06200
C2453       C  0.88009346  0.62570821  0.72894988    -0.00200
C2454       C  0.89945656  0.62497162  0.70195417    -0.08700
C2455       C  0.90109947  0.64586457  0.67696438     0.61700
H2456       H  0.93208691  0.60311224  0.67793603     0.12400
H2457       H  0.86193438  0.60494533  0.77134529     0.12400
C2458       C  0.89075653  0.55970059  0.77129403     0.61900
F2459       F  0.91933168  0.63958158  0.65220456    -0.23300
F2460       F  0.92116408  0.68415444  0.68372962    -0.20600
F2461       F  0.86417913  0.63396189  0.67113078    -0.20300
F2462       F  0.92710027  0.56952526  0.77698174    -0.20300
F2463       F  0.86933188  0.52165771  0.76348444    -0.20600
F2464       F  0.87306622  0.56608508  0.79635718    -0.23300
C2465       C  0.91752786  0.76327216  0.71347635    -0.06100
C2466       C  0.88713402  0.74810980  0.73511805    -0.00200
C2467       C  0.87696430  0.77234486  0.75127533    -0.08800
C2468       C  0.89296860  0.80884820  0.74200083    -0.06200
C2469       C  0.92017968  0.82253303  0.71815377    -0.00200
C2470       C  0.93509329  0.80049474  0.70519442    -0.08700
C2471       C  0.96914497  0.81557198  0.68268631     0.61700
H2472       H  0.92610482  0.74508995  0.70177987     0.12400
H2473       H  0.88323905  0.82645751  0.75322368     0.12400
C2474       C  0.85028863  0.76173682  0.77863720     0.61900
F2475       F  0.98480552  0.79341886  0.67911082    -0.23300
F2476       F  0.99784496  0.85166273  0.69105714    -0.20600
F2477       F  0.95758188  0.81601531  0.65648333    -0.20300
F2478       F  0.83785029  0.72631755  0.78712240    -0.20300
F2479       F  0.81853330  0.76305898  0.77474532    -0.20600
F2480       F  0.86970557  0.78748794  0.80068100    -0.23300
C2481       C  0.69343240  0.59374611  0.73172369    -0.06100
C2482       C  0.68794596  0.59161807  0.70244257    -0.00200
C2483       C  0.72072065  0.60708292  0.68203785    -0.08800
C2484       C  0.75757041  0.62482996  0.69202579    -0.06200
C2485       C  0.76272647  0.62710021  0.72120357    -0.00200
C2486       C  0.73041560  0.61090113  0.74141866    -0.08700
C2487       C  0.73530177  0.61207281  0.77304010     0.61700
H2488       H  0.66841800  0.58171838  0.74703034     0.12400
H2489       H  0.78299018  0.63718362  0.67708655     0.12400
C2490       C  0.71757742  0.60578178  0.64993983     0.61900
F2491       F  0.70025230  0.59414436  0.78921422    -0.23300
F2492       F  0.75661338  0.64913797  0.78345600    -0.20600
F2493       F  0.75430217  0.59428434  0.77653065    -0.20300
F2494       F  0.69695417  0.62139084  0.64502377    -0.20300
F2495       F  0.69953358  0.56882988  0.63902070    -0.20600
F2496       F  0.75331907  0.62579935  0.63489803    -0.23300
C2497       C  0.88785227  0.57705956  0.99087264    -0.06100
C2498       C  0.91350110  0.58573782  0.96621677    -0.00200
C2499       C  0.92088892  0.61466097  0.94890468    -0.08800
C2500       C  0.90240047  0.63439615  0.95718042    -0.06200
C2501       C  0.87681459  0.62596334  0.98195407    -0.00200
C2502       C  0.86946067  0.59692711  0.99934605    -0.08700
C2503       C  0.84397885  0.58801585  0.02739253     0.61700
H2504       H  0.88292460  0.55491141  0.00377967     0.12400
H2505       H  0.90707088  0.65612833  0.94391924     0.12400
C2506       C  0.94687241  0.62352285  0.92119306     0.61900
F2507       F  0.84413157  0.56138624  0.04200502    -0.23300
F2508       F  0.80325303  0.57276924  0.52297148    -0.20600
F2509       F  0.85720213  0.62045091  0.04501517    -0.20300
F2510       F  0.93479699  0.59090416  0.90388816    -0.20300
F2511       F  0.98432701  0.63849425  0.92735335    -0.20600
F2512       F  0.94641448  0.64939001  0.90584515    -0.23300
C2513       C  0.87994304  0.80541424  0.98989928    -0.06100
C2514       C  0.91097328  0.82101654  0.96876621    -0.00200
C2515       C  0.92761870  0.79977337  0.95768379    -0.08800
C2516       C  0.90968928  0.76227335  0.96553797    -0.06200
C2517       C  0.87725447  0.74584660  0.98540516    -0.00200
C2518       C  0.86378498  0.76879909  0.99928969    -0.08700
C2519       C  0.84140033  0.75995360  0.52567225     0.61700
H2520       H  0.86807589  0.82200513  0.99929759     0.12400
H2521       H  0.92015761  0.74495424  0.95508490     0.12400
C2522       C  0.96448531  0.81629544  0.93793777     0.61900
F2523       F  0.79993736  0.75119002  0.01566617    -0.23300
F2524       F  0.84628259  0.78469537  0.04618774    -0.20600
F2525       F  0.83568497  0.72871403  0.53772407    -0.20300
F2526       F  0.99165560  0.85174745  0.94866633    -0.20300
F2527       F  0.95714253  0.81871138  0.91062883    -0.20600
F2528       F  0.98016696  0.79423827  0.93579376    -0.23300
C2529       C  0.72475849  0.61652338  0.49747902    -0.06100
C2530       C  0.75591254  0.62060147  0.97521903    -0.00200
C2531       C  0.74524507  0.60516687  0.94722392    -0.08800
C2532       C  0.70659413  0.58778075  0.94178709    -0.06200
C2533       C  0.67842962  0.58576140  0.96313703    -0.00200
C2534       C  0.68913904  0.60013753  0.99158834    -0.08700
C2535       C  0.65598328  0.59216969  0.51688668     0.61700
H2536       H  0.73343207  0.62662280  0.51911774     0.12400
H2537       H  0.69838410  0.57618197  0.92029836     0.12400
C2538       C  0.77454164  0.60754493  0.92297686     0.61900
F2539       F  0.67160188  0.60148535  0.54317415    -0.23300
F2540       F  0.62638906  0.55461194  0.51679101    -0.20600
F2541       F  0.64141742  0.61443041  0.51466735    -0.20300
F2542       F  0.78661120  0.58397853  0.92777274    -0.20300
F2543       F  0.80602727  0.64411300  0.92139849    -0.20600
F2544       F  0.75920596  0.59673042  0.89652224    -0.23300
loop_ 
_geom_bond_atom_site_label_1 
_geom_bond_atom_site_label_2 
_geom_bond_distance 
_geom_bond_site_symmetry_2 
_ccdc_geom_bond_type 
C1            C2   1.405       .  A
C1            C6   1.400       .  A
C1          C593   1.480       .  S
C2            C3   1.409       .  A
C2            H7   1.083       .  S
C3            C4   1.406       .  A
C3          C609   1.491       .  S
C4            C5   1.402       .  A
C4            H8   1.082       .  S
C5            C6   1.399       .  A
C5          C622   1.480       .  S
C6            H9   1.084       .  S
C10          C11   1.398       .  A
C10          C15   1.404       .  A
C10         C227   1.479       .  S
C11          C12   1.401       .  A
C11          H16   1.085       .  S
C12          C13   1.405       .  A
C12         C259   1.482       .  S
C13          C14   1.406       .  A
C13          H17   1.083       .  S
C14          C15   1.408       .  A
C14         C240   1.490       .  S
C15          H18   1.084       .  S
C19          C20   1.403       .  A
C19          C24   1.401       .  A
C19         C208   1.476       .  S
C20          C21   1.404       .  A
C20          H25   1.081       .  S
C21          C22   1.406       .  A
C21         C176   1.486       .  S
C22          C23   1.403       .  A
C22          H26   1.084       .  S
C23          C24   1.399       .  A
C23         C195   1.481       .  S
C24          H27   1.084       .  S
C28          C29   1.403       .  A
C28          C33   1.398       .  A
C28         C160   1.475       .  S
C29          C30   1.401       .  A
C29          H34   1.084       .  S
C30          C31   1.401       .  A
C30         C131   1.477       .  S
C31          C32   1.399       .  A
C31          H35   1.089       .  S
C32          C33   1.397       .  A
C32         C144   1.473       .  S
C33          H36   1.090       .  S
N37          N38   1.323       .  A
N37          N43   1.314       .  A
N37         Mn66   2.209       .  S
N38          C45   1.356       .  A
N39          N41   1.312       .  A
N39          N40   1.321       .  A
N39         Mn55   2.205       .  S
N40          C46   1.354       .  A
N41          N42   1.320       .  A
N41         Mn66   2.197       .  S
N42          C46   1.356       .  A
N43          N44   1.316       .  A
N43         Mn55   2.189       .  S
N44          C45   1.353       .  A
C45         C307   1.492       .  S
C46         C179   1.499       .  S
N47          N48   1.318       .  A
N47        N1961   1.316       .  A
N47         Mn77   2.198       .  S
N48          C56   1.352       .  A
N49          N50   1.320       .  A
N49          N51   1.317       .  A
N49        Mn691   2.201       .  S
N50          C57   1.351       .  A
N51          N52   1.320       .  A
N51       Mn1349   2.202   1_455  S
N52          C57   1.351       .  A
N53          N54   1.316       .  A
N53        N1955   1.316   1_445  A
N53         Mn55   2.168       .  S
N54        C1964   1.346   1_545  A
Mn55        N685   2.199   1_545  S
Mn55      Cl1987   2.541   1_445  S
C56         C113   1.449       .  S
C56        N1962   1.346       .  A
C57         C211   1.469       .  S
N58          N59   1.318       .  A
N58          N64   1.316       .  A
N58       Mn1338   2.192       .  S
N59          C67   1.349       .  A
N60        N1970   1.316       .  A
N60         N379   1.318       .  A
N60         Mn78   2.185       .  S
N61         N378   1.320   1_554  A
N61          C68   1.351       .  A
N62        N1968   1.316   1_445  A
N62         N381   1.317       .  A
N62         Mn66   2.189       .  S
N63         N380   1.316   1_554  A
N63        C1976   1.348   1_445  A
N64          N65   1.325       .  A
N64        Mn714   2.229   1_545  S
N65          C67   1.359       .  A
Mn66       N1330   2.192   1_455  S
Mn66      Cl1987   2.548   1_445  S
C67         C272   1.487       .  S
C68         C101   1.453       .  S
C68        N1971   1.348       .  A
N69          N70   1.318       .  A
N69          N75   1.315       .  A
N69         Mn77   2.198       .  S
N70          C80   1.351       .  A
N71          N72   1.317       .  A
N71          N73   1.315       .  A
N71         Mn78   2.191       .  S
N72          C81   1.349       .  A
N73          N74   1.324       .  A
N73         Mn77   2.220       .  S
N74          C81   1.360       .  A
N75          N76   1.324       .  A
N75         Mn78   2.217       .  S
N76          C80   1.359       .  A
Mn77       N1323   2.206       .  S
Mn77        Cl79   2.547       .  S
Mn78        N700   2.211       .  S
Mn78        Cl79   2.545       .  S
Cl79      Mn1963   2.543       .  S
Cl79      Mn1974   2.545       .  S
C80         C288   1.494       .  S
C81         C192   1.499       .  S
N82          N83   1.321       .  A
N82          N88   1.313       .  A
N82        Mn111   2.206       .  S
N83          C90   1.357       .  A
N84          N86   1.314       .  A
N84          N85   1.321       .  A
N84        Mn100   2.197       .  S
N85          C91   1.354       .  A
N86          N87   1.315       .  A
N86        Mn111   2.193       .  S
N87          C91   1.354       .  A
N88          N89   1.318       .  A
N88        Mn100   2.189       .  S
N89          C90   1.351       .  A
C90         C256   1.492       .  S
C91         C128   1.490       .  S
N92          N93   1.319       .  A
N92        N2006   1.316       .  A
N92        Mn122   2.185       .  S
N93         C101   1.349       .  A
N94          N95   1.319       .  A
N94          N96   1.317       .  A
N94        Mn736   2.201       .  S
N95         C102   1.352       .  A
N96          N97   1.318       .  A
N96       Mn1394   2.188   1_455  S
N97         C102   1.349       .  A
N98          N99   1.317       .  A
N98        N2000   1.315   1_445  A
N98        Mn100   2.184       .  S
N99        C2009   1.349   1_545  A
Mn100       N730   2.191   1_545  S
Mn100     Cl2032   2.543       .  S
C101       N2007   1.350       .  A
C102        C163   1.462       .  S
N103        N104   1.319       .  A
N103        N109   1.317       .  A
N103      Mn1383   2.200       .  S
N104        C112   1.351       .  A
N105        N106   1.316       .  A
N105       N2015   1.317       .  A
N105       Mn123   2.177       .  S
N106        C113   1.346       .  A
N107        N108   1.319       .  A
N107       N2013   1.316   1_445  A
N107       Mn111   2.190       .  S
N108       C2021   1.352       .  A
N109        N110   1.322       .  A
N109       Mn759   2.210   1_545  S
N110        C112   1.353       .  A
Mn111      N1375   2.198   1_455  S
Mn111     Cl2032   2.543       .  S
C112        C224   1.473       .  S
C113       N2016   1.352       .  A
N114        N115   1.318       .  A
N114        N120   1.313       .  A
N114       Mn122   2.197       .  S
N115        C125   1.352       .  A
N116        N117   1.317       .  A
N116        N118   1.313       .  A
N116       Mn123   2.187       .  S
N117        C126   1.352       .  A
N118        N119   1.319       .  A
N118       Mn122   2.191       .  S
N119        C126   1.352       .  A
N120        N121   1.323       .  A
N120       Mn123   2.209       .  S
N121        C125   1.357       .  A
Mn122      N1368   2.183       .  S
Mn122      Cl124   2.546       .  S
Mn123       N745   2.203       .  S
Mn123      Cl124   2.543       .  S
Cl124     Mn2008   2.543       .  S
Cl124     Mn2019   2.545       .  S
C125        C243   1.492       .  S
C126        C147   1.472       .  S
C127        C128   1.407       .  A
C127        C132   1.399       .  A
C127        H134   1.080       .  S
C128        C129   1.425       .  A
C129        C130   1.410       .  A
C129        C136   1.520       .  S
C130        C131   1.402       .  A
C130        H135   1.082       .  S
C131        C132   1.414       .  A
C132        C133   1.523       .  S
C133        F137   1.385       .  S
C133        F138   1.381       .  S
C133        F139   1.381       .  S
C136        F140   1.383       .  S
C136        F141   1.383       .  S
C136        F142   1.385       .  S
C143        C144   1.402       .  A
C143        C148   1.407       .  A
C143        H150   1.082       .  S
C144        C145   1.417       .  A
C145        C146   1.399       .  A
C145        C152   1.521       .  S
C146        C147   1.401       .  A
C146        H151   1.082       .  S
C147        C148   1.416       .  A
C148        C149   1.518       .  S
C149        F153   1.385       .  S
C149        F154   1.382       .  S
C149        F155   1.384       .  S
C152        F156   1.381       .  S
C152        F157   1.381       .  S
C152        F158   1.385       .  S
C159        C160   1.403       .  A
C159        C164   1.405       .  A
C159        H166   1.082       .  S
C160        C161   1.421       .  A
C161        C162   1.400       .  A
C161        C168   1.520       .  S
C162        C163   1.395       .  A
C162        H167   1.083       .  S
C163        C164   1.413       .  A
C164        C165   1.517       .  S
C165        F169   1.385       .  S
C165        F170   1.383       .  S
C165        F171   1.382       .  S
C168        F172   1.382       .  S
C168        F173   1.385       .  S
C168        F174   1.380       .  S
C175        C176   1.401       .  A
C175        C180   1.410       .  A
C175        H182   1.082       .  S
C176        C177   1.417       .  A
C177        C178   1.407       .  A
C177        C184   1.522       .  S
C178        C179   1.409       .  A
C178        H183   1.081       .  S
C179        C180   1.426       .  A
C180        C181   1.520       .  S
C181        F185   1.385       .  S
C181        F186   1.384       .  S
C181        F187   1.383       .  S
C184        F188   1.382       .  S
C184        F189   1.383       .  S
C184        F190   1.385       .  S
C191        C192   1.411       .  A
C191        C196   1.409       .  A
C191        H198   1.081       .  S
C192        C193   1.430       .  A
C193        C194   1.406       .  A
C193        C200   1.523       .  S
C194        C195   1.398       .  A
C194        H199   1.083       .  S
C195        C196   1.411       .  A
C196        C197   1.517       .  S
C197        F201   1.384       .  S
C197        F202   1.383       .  S
C197        F203   1.382       .  S
C200        F204   1.383       .  S
C200        F205   1.383       .  S
C200        F206   1.385       .  S
C207        C208   1.403       .  A
C207        C212   1.402       .  A
C207        H214   1.083       .  S
C208        C209   1.414       .  A
C209        C210   1.409       .  A
C209        C216   1.517       .  S
C210        C211   1.404       .  A
C210        H215   1.083       .  S
C211        C212   1.412       .  A
C212        C213   1.518       .  S
C213        F217   1.384       .  S
C213        F218   1.383       .  S
C213        F219   1.383       .  S
C216        F220   1.382       .  S
C216        F221   1.384       .  S
C216        F222   1.385       .  S
C223        C224   1.399       .  A
C223        C228   1.404       .  A
C223        H230   1.084       .  S
C224        C225   1.416       .  A
C225        C226   1.409       .  A
C225        C232   1.517       .  S
C226        C227   1.403       .  A
C226        H231   1.083       .  S
C227        C228   1.418       .  A
C228        C229   1.519       .  S
C229        F233   1.385       .  S
C229        F234   1.379       .  S
C229        F235   1.383       .  S
C232        F236   1.383       .  S
C232        F237   1.383       .  S
C232        F238   1.385       .  S
C239        C240   1.402       .  A
C239        C244   1.406       .  A
C239        H246   1.081       .  S
C240        C241   1.419       .  A
C241        C242   1.407       .  A
C241        C248   1.517       .  S
C242        C243   1.407       .  A
C242        H247   1.084       .  S
C243        C244   1.423       .  A
C244        C245   1.521       .  S
C245        F249   1.385       .  S
C245        F250   1.383       .  S
C245        F251   1.382       .  S
C248        F252   1.382       .  S
C248        F253   1.383       .  S
C248        F254   1.384       .  S
C255        C256   1.408       .  A
C255        C260   1.406       .  A
C255        H262   1.083       .  S
C256        C257   1.426       .  A
C257        C258   1.406       .  A
C257        C264   1.522       .  S
C258        C259   1.402       .  A
C258        H263   1.084       .  S
C259        C260   1.413       .  A
C260        C261   1.519       .  S
C261        F265   1.385       .  S
C261        F266   1.379       .  S
C261        F267   1.383       .  S
C264        F268   1.383       .  S
C264        F269   1.384       .  S
C264        F270   1.385       .  S
C271        C272   1.402       .  A
C271        C276   1.407       .  A
C271        H278   1.084       .  S
C272        C273   1.422       .  A
C273        C274   1.410       .  A
C273        C280   1.522       .  S
C274        C275   1.408       .  A
C274        H279   1.083       .  S
C275        C276   1.421       .  A
C275        C319   1.496       .  S
C276        C277   1.518       .  S
C277        F281   1.385       .  S
C277        F283   1.383       .  S
C277        F600   1.382       .  S
C280        F284   1.383       .  S
C280        F285   1.382       .  S
C280        F286   1.385       .  S
F282        C595   1.382       .  S
C287        C288   1.407       .  A
C287        C292   1.411       .  A
C287        H294   1.083       .  S
C288        C289   1.423       .  A
C289        C290   1.406       .  A
C289        C296   1.521       .  S
C290        C291   1.404       .  A
C290        H295   1.083       .  S
C291        C292   1.421       .  A
C291        C321   1.495       .  S
C292        C611   1.519       .  S
C293        C610   1.518   1_554  S
C293        F299   1.384       .  S
C293        F615   1.381       .  S
C293        F616   1.385       .  S
C296        F300   1.384       .  S
C296        F301   1.382       .  S
C296        F302   1.385       .  S
F297        C611   1.381       .  S
F298        C611   1.385       .  S
C303        C622   1.400       .  A
C303        C626   1.412       .  A
C303        H310   1.084   1_556  S
C304        C305   1.411       .  A
C304        C621   1.403       .  A
C304        C323   1.479       .  S
C305        C306   1.401       .  A
C305        C312   1.521       .  S
C306        C307   1.408       .  A
C306        H311   1.082       .  S
C307        C308   1.424       .  A
C308        C621   1.413       .  A
C308        C627   1.520       .  S
C309        C626   1.521   1_554  S
C309        F313   1.385       .  S
C309        F314   1.383       .  S
C309        F315   1.383       .  S
C312        F316   1.382       .  S
C312        F317   1.383       .  S
C312        F318   1.384       .  S
C319        C320   1.411       .  A
C319        C324   1.405       .  A
C320        C321   1.412       .  A
C320        H325   1.083       .  S
C321        C322   1.405       .  A
C322        C323   1.401       .  A
C322        H326   1.081       .  S
C323        C324   1.399       .  A
C324        H327   1.083       .  S
C328        C329   1.399       .  A
C328        C333   1.403       .  A
C328        C545   1.480       .  S
C329        C330   1.404       .  A
C329        H334   1.084       .  S
C330        C331   1.405       .  A
C330        C577   1.485       .  S
C331        C332   1.408       .  A
C331        H335   1.083       .  S
C332        C333   1.407       .  A
C332        C558   1.491       .  S
C333        H336   1.084       .  S
C337        C338   1.402       .  A
C337        C342   1.402       .  A
C337        C526   1.483       .  S
C338        C339   1.402       .  A
C338        H343   1.081       .  S
C339        C340   1.407       .  A
C339        C494   1.486       .  S
C340        C341   1.407       .  A
C340        H344   1.081       .  S
C341        C342   1.405       .  A
C341        C513   1.493       .  S
C342        H345   1.084       .  S
C346        C347   1.405       .  A
C346        C351   1.398       .  A
C346        C478   1.477       .  S
C347        C348   1.404       .  A
C347        H352   1.085       .  S
C348        C349   1.402       .  A
C348        C449   1.479       .  S
C349        C350   1.400       .  A
C349        H353   1.089       .  S
C350        C351   1.397       .  A
C350        C462   1.474       .  S
C351        H354   1.091       .  S
N355        N356   1.320       .  A
N355        N361   1.313       .  A
N355       Mn384   2.191       .  S
N356        C363   1.352       .  A
N357        N359   1.313       .  A
N357        N358   1.321       .  A
N357       Mn373   2.205       .  S
N358        C364   1.354       .  A
N359        N360   1.320       .  A
N359       Mn384   2.200       .  S
N360        C364   1.356       .  A
N361        N362   1.320       .  A
N361       Mn373   2.210       .  S
N362        C363   1.358       .  A
C363        C625   1.496       .  S
C364        C497   1.498       .  S
N365       N2279   1.316       .  A
N365        N366   1.315       .  A
N365       Mn395   2.185       .  S
N366        C374   1.348       .  A
N367        N368   1.319       .  A
N367        N369   1.317       .  A
N367      Mn1009   2.197       .  S
N368        C375   1.351       .  A
N369        N370   1.321       .  A
N369      Mn1667   2.206   1_455  S
N370        C375   1.353       .  A
N371       N2273   1.316   1_445  A
N371        N372   1.319       .  A
N371       Mn373   2.195       .  S
N372       C2282   1.350   1_445  A
Mn373      N1003   2.200   1_545  S
Mn373     Cl2305   2.547   1_445  S
C374        C431   1.442       .  S
C374       N2280   1.347       .  A
C375        C529   1.473       .  S
N376        N377   1.319       .  A
N376        N382   1.316       .  A
N376      Mn1656   2.193       .  S
N377        C385   1.349       .  A
N378       N2288   1.316       .  A
N378       Mn396   2.199       .  S
N379        C386   1.349       .  A
N380       N2286   1.316   1_445  A
N380       Mn384   2.186       .  S
N381       C2294   1.349   1_445  A
N382        N383   1.324       .  A
N382      Mn1032   2.222   1_545  S
N383        C385   1.356       .  A
Mn384      N1648   2.183   1_455  S
Mn384     Cl2305   2.542   1_445  S
C385        C590   1.476       .  S
C386        C419   1.448       .  S
C386       N2289   1.349       .  A
N387        N388   1.317       .  A
N387        N393   1.315       .  A
N387       Mn395   2.194       .  S
N388        C398   1.351       .  A
N389        N390   1.319       .  A
N389        N391   1.315       .  A
N389       Mn396   2.205       .  S
N390        C399   1.353       .  A
N391        N392   1.322       .  A
N391       Mn395   2.207       .  S
N392        C399   1.356       .  A
N393        N394   1.324       .  A
N393       Mn396   2.216       .  S
N394        C398   1.358       .  A
Mn395      N1641   2.201       .  S
Mn395      Cl397   2.540       .  S
Mn396      N1018   2.214       .  S
Mn396      Cl397   2.552       .  S
Cl397     Mn2281   2.549       .  S
Cl397     Mn2292   2.537       .  S
C398        C606   1.491       .  S
C399        C510   1.492       .  S
N400        N401   1.320       .  A
N400        N406   1.314       .  A
N400       Mn429   2.202       .  S
N401        C408   1.356       .  A
N402        N404   1.314       .  A
N402        N403   1.322       .  A
N402       Mn418   2.205       .  S
N403        C409   1.355       .  A
N404        N405   1.317       .  A
N404       Mn429   2.195       .  S
N405        C409   1.354       .  A
N406        N407   1.318       .  A
N406       Mn418   2.196       .  S
N407        C408   1.352       .  A
C408        C574   1.493       .  S
C409        C446   1.496       .  S
N410       N2324   1.315       .  A
N410        N411   1.318       .  A
N410       Mn440   2.187       .  S
N411        C419   1.350       .  A
N412        N413   1.318       .  A
N412        N414   1.316       .  A
N412      Mn1054   2.186       .  S
N413        C420   1.349       .  A
N414        N415   1.318       .  A
N414      Mn1712   2.192   1_455  S
N415        C420   1.350       .  A
N416       N2318   1.316   1_445  A
N416        N417   1.317       .  A
N416       Mn418   2.188       .  S
N417       C2327   1.348   1_445  A
Mn418      N1048   2.202   1_545  S
Mn418     Cl2350   2.544   1_445  S
C419       N2325   1.347       .  A
C420        C481   1.459       .  S
N421        N422   1.320       .  A
N421        N427   1.316       .  A
N421      Mn1701   2.200       .  S
N422        C430   1.351       .  A
N423       N2333   1.316       .  A
N423        N424   1.313       .  A
N423       Mn441   2.172       .  S
N424        C431   1.345       .  A
N425       N2331   1.316   1_445  A
N425        N426   1.319       .  A
N425       Mn429   2.191       .  S
N426       C2339   1.350   1_445  A
N427        N428   1.322       .  A
N427      Mn1077   2.213   1_545  S
N428        C430   1.353       .  A
Mn429      N1693   2.202   1_455  S
Mn429     Cl2350   2.540   1_445  S
C430        C542   1.474       .  S
C431       N2334   1.350       .  A
N432        N433   1.320       .  A
N432        N438   1.314       .  A
N432       Mn440   2.197       .  S
N433        C443   1.352       .  A
N434        N435   1.316       .  A
N434        N436   1.314       .  A
N434       Mn441   2.182       .  S
N435        C444   1.351       .  A
N436        N437   1.321       .  A
N436       Mn440   2.200       .  S
N437        C444   1.354       .  A
N438        N439   1.322       .  A
N438       Mn441   2.215       .  S
N439        C443   1.358       .  A
Mn440      N1686   2.185       .  S
Mn440      Cl442   2.545       .  S
Mn441      N1063   2.206       .  S
Mn441      Cl442   2.538       .  S
Cl442     Mn2326   2.540       .  S
Cl442     Mn2337   2.544       .  S
C443        C561   1.493       .  S
C444        C465   1.477       .  S
C445        C446   1.409       .  A
C445        C450   1.402       .  A
C445        H452   1.080       .  S
C446        C447   1.426       .  A
C447        C448   1.412       .  A
C447        C454   1.520       .  S
C448        C449   1.402       .  A
C448        H453   1.082       .  S
C449        C450   1.412       .  A
C450        C451   1.521       .  S
C451        F455   1.384       .  S
C451        F456   1.382       .  S
C451        F457   1.382       .  S
C454        F458   1.384       .  S
C454        F459   1.383       .  S
C454        F460   1.385       .  S
C461        C462   1.402       .  A
C461        C466   1.407       .  A
C461        H468   1.082       .  S
C462        C463   1.416       .  A
C463        C464   1.401       .  A
C463        C470   1.520       .  S
C464        C465   1.404       .  A
C464        H469   1.082       .  S
C465        C466   1.417       .  A
C466        C467   1.517       .  S
C467        F471   1.385       .  S
C467        F472   1.382       .  S
C467        F473   1.384       .  S
C470        F474   1.381       .  S
C470        F475   1.380       .  S
C470        F476   1.385       .  S
C477        C478   1.405       .  A
C477        C482   1.406       .  A
C477        H484   1.082       .  S
C478        C479   1.422       .  A
C479        C480   1.400       .  A
C479        C486   1.520       .  S
C480        C481   1.394       .  A
C480        H485   1.083       .  S
C481        C482   1.410       .  A
C482        C483   1.517       .  S
C483        F487   1.384       .  S
C483        F488   1.384       .  S
C483        F489   1.383       .  S
C486        F490   1.381       .  S
C486        F491   1.385       .  S
C486        F492   1.381       .  S
C493        C494   1.402       .  A
C493        C498   1.412       .  A
C493        H500   1.082       .  S
C494        C495   1.416       .  A
C495        C496   1.406       .  A
C495        C502   1.522       .  S
C496        C497   1.409       .  A
C496        H501   1.081       .  S
C497        C498   1.427       .  A
C498        C499   1.521       .  S
C499        F503   1.385       .  S
C499        F504   1.384       .  S
C499        F505   1.383       .  S
C502        F506   1.381       .  S
C502        F507   1.383       .  S
C502        F508   1.384       .  S
C509        C510   1.408       .  A
C509        C514   1.411       .  A
C509        H516   1.082       .  S
C510        C511   1.420       .  A
C511        C512   1.405       .  A
C511        C518   1.521       .  S
C512        C513   1.406       .  A
C512        H517   1.083       .  S
C513        C514   1.419       .  A
C514        C515   1.521       .  S
C515        F519   1.385       .  S
C515        F520   1.383       .  S
C515        F521   1.380       .  S
C518        F522   1.384       .  S
C518        F523   1.382       .  S
C518        F524   1.385       .  S
C525        C526   1.406       .  A
C525        C530   1.405       .  A
C525        H532   1.083       .  S
C526        C527   1.415       .  A
C527        C528   1.408       .  A
C527        C534   1.517       .  S
C528        C529   1.403       .  A
C528        H533   1.083       .  S
C529        C530   1.414       .  A
C530        C531   1.520       .  S
C531        F535   1.385       .  S
C531        F536   1.383       .  S
C531        F537   1.383       .  S
C534        F538   1.380       .  S
C534        F539   1.384       .  S
C534        F540   1.385       .  S
C541        C542   1.399       .  A
C541        C546   1.405       .  A
C541        H548   1.084       .  S
C542        C543   1.415       .  A
C543        C544   1.410       .  A
C543        C550   1.516       .  S
C544        C545   1.402       .  A
C544        H549   1.083       .  S
C545        C546   1.418       .  A
C546        C547   1.519       .  S
C547        F551   1.385       .  S
C547        F552   1.382       .  S
C547        F553   1.383       .  S
C550        F554   1.383       .  S
C550        F555   1.383       .  S
C550        F556   1.385       .  S
C557        C558   1.405       .  A
C557        C562   1.409       .  A
C557        H564   1.083       .  S
C558        C559   1.419       .  A
C559        C560   1.406       .  A
C559        C566   1.518       .  S
C560        C561   1.406       .  A
C560        H565   1.084       .  S
C561        C562   1.423       .  A
C562        C563   1.520       .  S
C563        F567   1.386       .  S
C563        F568   1.384       .  S
C563        F569   1.382       .  S
C566        F570   1.381       .  S
C566        F571   1.383       .  S
C566        F572   1.384       .  S
C573        C574   1.409       .  A
C573        C578   1.407       .  A
C573        H580   1.083       .  S
C574        C575   1.425       .  A
C575        C576   1.405       .  A
C575        C582   1.521       .  S
C576        C577   1.401       .  A
C576        H581   1.084       .  S
C577        C578   1.416       .  A
C578        C579   1.519       .  S
C579        F583   1.385       .  S
C579        F584   1.379       .  S
C579        F585   1.383       .  S
C582        F586   1.383       .  S
C582        F587   1.384       .  S
C582        F588   1.385       .  S
C589        C590   1.404   1_554  A
C589        C594   1.410       .  A
C589        H596   1.083       .  S
C590        C591   1.415       .  A
C591        C592   1.405       .  A
C591        C598   1.518       .  S
C592        C593   1.402       .  A
C592        H597   1.083       .  S
C593        C594   1.414   1_556  A
C594        C595   1.517       .  S
C595        F599   1.385       .  S
C595        F601   1.383       .  S
C598        F602   1.383       .  S
C598        F603   1.382       .  S
C598        F604   1.385       .  S
C605        C606   1.406       .  A
C605        C610   1.409       .  A
C605        H612   1.083       .  S
C606        C607   1.422       .  A
C607        C608   1.406       .  A
C607        C614   1.520       .  S
C608        C609   1.404       .  A
C608        H613   1.084       .  S
C609        C610   1.419       .  A
C611        F617   1.383       .  S
C614        F618   1.384       .  S
C614        F619   1.383       .  S
C614        F620   1.385       .  S
C621        H628   1.083       .  S
C622        C623   1.413       .  A
C623        C624   1.403       .  A
C623        C630   1.521       .  S
C624        C625   1.407       .  A
C624        H629   1.082       .  S
C625        C626   1.429       .  A
C627        F631   1.385       .  S
C627        F632   1.384       .  S
C627        F633   1.383       .  S
C630        F634   1.382       .  S
C630        F635   1.383       .  S
C630        F636   1.384       .  S
C637        C638   1.406       .  A
C637        C642   1.401       .  A
C637       C1229   1.482       .  S
C638        C639   1.409       .  A
C638        H643   1.084       .  S
C639        C640   1.407       .  A
C639       C1245   1.495       .  S
C640        C641   1.403       .  A
C640        H644   1.084       .  S
C641        C642   1.398       .  A
C641       C1258   1.476       .  S
C642        H645   1.084       .  S
C646        C647   1.401       .  A
C646        C651   1.406       .  A
C646        C863   1.483       .  S
C647        C648   1.398       .  A
C647        H652   1.083       .  S
C648        C649   1.401       .  A
C648        C895   1.476       .  S
C649        C650   1.406       .  A
C649        H653   1.083       .  S
C650        C651   1.408       .  A
C650        C876   1.491       .  S
C651        H654   1.084       .  S
C655        C656   1.403       .  A
C655        C660   1.404       .  A
C655        C844   1.483       .  S
C656        C657   1.403       .  A
C656        H661   1.081       .  S
C657        C658   1.404       .  A
C657        C812   1.481       .  S
C658        C659   1.402       .  A
C658        H662   1.083       .  S
C659        C660   1.402       .  A
C659        C831   1.485       .  S
C660        H663   1.084       .  S
C664        C665   1.404       .  A
C664        C669   1.399       .  A
C664        C796   1.477       .  S
C665        C666   1.403       .  A
C665        H670   1.084       .  S
C666        C667   1.402       .  A
C666        C767   1.483       .  S
C667        C668   1.400       .  A
C667        H671   1.089       .  S
C668        C669   1.399       .  A
C668        C780   1.475       .  S
C669        H672   1.090       .  S
N673        N674   1.320       .  A
N673        N679   1.313       .  A
N673       Mn702   2.197       .  S
N674        C681   1.353       .  A
N675        N677   1.313       .  A
N675        N676   1.322       .  A
N675       Mn691   2.211       .  S
N676        C682   1.356       .  A
N677        N678   1.318       .  A
N677       Mn702   2.188       .  S
N678        C682   1.354       .  A
N679        N680   1.318       .  A
N679       Mn691   2.193       .  S
N680        C681   1.355       .  A
C681        C943   1.488       .  S
C682        C815   1.497       .  S
N683       N1325   1.316   1_565  A
N683        N684   1.315       .  A
N683       Mn713   2.186       .  S
N684        C692   1.348       .  A
N685        N686   1.320       .  A
N685        N687   1.317       .  A
N686        C693   1.351       .  A
N687        N688   1.321       .  A
N687      Mn1985   2.206   1_455  S
N688        C693   1.352       .  A
N689       N1319   1.317   1_455  A
N689        N690   1.318       .  A
N689       Mn691   2.182       .  S
N690       C1328   1.348       .  A
Mn691     Cl1351   2.547   1_455  S
C692        C749   1.445   1_565  S
C692       N1326   1.348   1_565  A
C693        C847   1.475       .  S
N694        N695   1.319       .  A
N694        N700   1.316       .  A
N694      Mn1974   2.191       .  S
N695        C703   1.349       .  A
N696       N1334   1.315   1_565  A
N696       N1015   1.320       .  A
N696       Mn714   2.191       .  S
N697       N1014   1.318   1_554  A
N697        C704   1.351   1_565  A
N698       N1332   1.315   1_455  A
N698       N1017   1.315       .  A
N698       Mn702   2.179       .  S
N699       N1016   1.316   1_554  A
N699       C1340   1.347   1_455  A
N700        N701   1.321       .  A
N701        C703   1.353       .  A
Mn702      N1966   2.194   1_455  S
Mn702     Cl1351   2.540   1_455  S
C703        C908   1.468       .  S
C704        C737   1.449   1_545  S
C704       N1335   1.347       .  A
N705        N706   1.318       .  A
N705        N711   1.316       .  A
N705       Mn713   2.195       .  S
N706        C716   1.350       .  A
N707        N708   1.317       .  A
N707        N709   1.314       .  A
N707       Mn714   2.197       .  S
N708        C717   1.350       .  A
N709        N710   1.325       .  A
N709       Mn713   2.220       .  S
N710        C717   1.359       .  A
N711        N712   1.324       .  A
N711       Mn714   2.226       .  S
N712        C716   1.359       .  A
Mn713      N1959   2.214       .  S
Mn713      Cl715   2.547       .  S
Mn714      Cl715   2.551       .  S
Cl715     Mn1327   2.545   1_565  S
Cl715     Mn1338   2.541   1_565  S
C716        C924   1.491       .  S
C717        C828   1.500       .  S
N718        N719   1.322       .  A
N718        N724   1.315       .  A
N718       Mn747   2.211       .  S
N719        C726   1.356       .  A
N720        N722   1.314       .  A
N720        N721   1.323       .  A
N720       Mn736   2.207       .  S
N721        C727   1.356       .  A
N722        N723   1.315       .  A
N722       Mn747   2.196       .  S
N723        C727   1.354       .  A
N724        N725   1.320       .  A
N724       Mn736   2.200       .  S
N725        C726   1.352       .  A
C726        C892   1.492       .  S
C727        C764   1.495       .  S
N728       N1370   1.315   1_565  A
N728        N729   1.317       .  A
N728       Mn758   2.178       .  S
N729        C737   1.347       .  A
N730        N731   1.318       .  A
N730        N732   1.316       .  A
N731        C738   1.350       .  A
N732        N733   1.318       .  A
N732      Mn2030   2.190   1_455  S
N733        C738   1.349       .  A
N734       N1364   1.315   1_455  A
N734        N735   1.317       .  A
N734       Mn736   2.185       .  S
N735       C1373   1.349       .  A
Mn736     Cl1396   2.547       .  S
C737       N1371   1.351   1_565  A
C738        C799   1.460       .  S
N739        N740   1.320       .  A
N739        N745   1.316       .  A
N739      Mn2019   2.203       .  S
N740        C748   1.351       .  A
N741       N1379   1.316   1_565  A
N741        N742   1.314       .  A
N741       Mn759   2.175       .  S
N742        C749   1.346   1_565  A
N743       N1377   1.317   1_455  A
N743        N744   1.320       .  A
N743       Mn747   2.200       .  S
N744       C1385   1.352       .  A
N745        N746   1.321       .  A
N746        C748   1.352       .  A
Mn747      N2011   2.205   1_455  S
Mn747     Cl1396   2.543       .  S
C748        C860   1.472       .  S
C749       N1380   1.350       .  A
N750        N751   1.318       .  A
N750        N756   1.314       .  A
N750       Mn758   2.193       .  S
N751        C761   1.351       .  A
N752        N753   1.318       .  A
N752        N754   1.314       .  A
N752       Mn759   2.193       .  S
N753        C762   1.353       .  A
N754        N755   1.319       .  A
N754       Mn758   2.192       .  S
N755        C762   1.351       .  A
N756        N757   1.323       .  A
N756       Mn759   2.216       .  S
N757        C761   1.358       .  A
Mn758      N2004   2.189       .  S
Mn758      Cl760   2.539   1_565  S
Mn759      Cl760   2.547   1_565  S
Cl760     Mn1372   2.546       .  S
Cl760     Mn1383   2.541       .  S
C761        C879   1.491       .  S
C762        C783   1.474       .  S
C763        C764   1.406       .  A
C763        C768   1.399       .  A
C763        H770   1.080       .  S
C764        C765   1.425       .  A
C765        C766   1.413       .  A
C765        C772   1.519       .  S
C766        C767   1.404       .  A
C766        H771   1.082       .  S
C767        C768   1.416       .  A
C768        C769   1.521       .  S
C769        F773   1.384       .  S
C769        F774   1.381       .  S
C769        F775   1.380       .  S
C772        F776   1.383       .  S
C772        F777   1.383       .  S
C772        F778   1.385       .  S
C779        C780   1.403       .  A
C779        C784   1.408       .  A
C779        H786   1.082       .  S
C780        C781   1.417       .  A
C781        C782   1.401       .  A
C781        C788   1.521       .  S
C782        C783   1.401       .  A
C782        H787   1.082       .  S
C783        C784   1.417       .  A
C784        C785   1.519       .  S
C785        F789   1.384       .  S
C785        F790   1.382       .  S
C785        F791   1.383       .  S
C788        F792   1.381       .  S
C788        F793   1.381       .  S
C788        F794   1.385       .  S
C795        C796   1.404       .  A
C795        C800   1.405       .  A
C795        H802   1.082       .  S
C796        C797   1.422       .  A
C797        C798   1.401       .  A
C797        C804   1.519       .  S
C798        C799   1.395       .  A
C798        H803   1.082       .  S
C799        C800   1.411       .  A
C800        C801   1.517       .  S
C801        F805   1.384       .  S
C801        F806   1.384       .  S
C801        F807   1.383       .  S
C804        F808   1.379       .  S
C804        F809   1.385       .  S
C804        F810   1.380       .  S
C811        C812   1.401       .  A
C811        C816   1.410       .  A
C811        H818   1.082       .  S
C812        C813   1.414       .  A
C813        C814   1.405       .  A
C813        C820   1.523       .  S
C814        C815   1.410       .  A
C814        H819   1.081       .  S
C815        C816   1.426       .  A
C816        C817   1.519       .  S
C817        F821   1.385       .  S
C817        F822   1.383       .  S
C817        F823   1.383       .  S
C820        F824   1.381       .  S
C820        F825   1.383       .  S
C820        F826   1.385       .  S
C827        C828   1.412       .  A
C827        C832   1.412       .  A
C827        H834   1.082       .  S
C828        C829   1.428       .  A
C829        C830   1.405       .  A
C829        C836   1.522       .  S
C830        C831   1.399       .  A
C830        H835   1.083       .  S
C831        C832   1.413       .  A
C832        C833   1.518       .  S
C833        F837   1.384       .  S
C833        F838   1.384       .  S
C833        F839   1.381       .  S
C836        F840   1.384       .  S
C836        F841   1.383       .  S
C836        F842   1.385       .  S
C843        C844   1.405       .  A
C843        C848   1.402       .  A
C843        H850   1.083       .  S
C844        C845   1.417       .  A
C845        C846   1.410       .  A
C845        C852   1.519       .  S
C846        C847   1.405       .  A
C846        H851   1.083       .  S
C847        C848   1.413       .  A
C848        C849   1.519       .  S
C849        F853   1.384       .  S
C849        F854   1.383       .  S
C849        F855   1.383       .  S
C852        F856   1.381       .  S
C852        F857   1.384       .  S
C852        F858   1.385       .  S
C859        C860   1.398       .  A
C859        C864   1.405       .  A
C859        H866   1.084       .  S
C860        C861   1.415       .  A
C861        C862   1.408       .  A
C861        C868   1.518       .  S
C862        C863   1.403       .  A
C862        H867   1.084       .  S
C863        C864   1.422       .  A
C864        C865   1.522       .  S
C865        F869   1.385       .  S
C865        F870   1.383       .  S
C865        F871   1.381       .  S
C868        F872   1.382       .  S
C868        F873   1.383       .  S
C868        F874   1.385       .  S
C875        C876   1.404       .  A
C875        C880   1.407       .  A
C875        H882   1.083       .  S
C876        C877   1.419       .  A
C877        C878   1.407       .  A
C877        C884   1.518       .  S
C878        C879   1.406       .  A
C878        H883   1.084       .  S
C879        C880   1.423       .  A
C880        C881   1.520       .  S
C881        F885   1.385       .  S
C881        F886   1.384       .  S
C881        F887   1.382       .  S
C884        F888   1.383       .  S
C884        F889   1.383       .  S
C884        F890   1.384       .  S
C891        C892   1.409       .  A
C891        C896   1.408       .  A
C891        H898   1.083       .  S
C892        C893   1.427       .  A
C893        C894   1.406       .  A
C893        C900   1.521       .  S
C894        C895   1.398       .  A
C894        H899   1.084       .  S
C895        C896   1.409       .  A
C896        C897   1.516       .  S
C897        F901   1.385       .  S
C897        F902   1.383       .  S
C897        F903   1.383       .  S
C900        F904   1.383       .  S
C900        F905   1.382       .  S
C900        F906   1.386       .  S
C907        C908   1.403       .  A
C907        C912   1.409       .  A
C907        H914   1.083       .  S
C908        C909   1.411       .  A
C909        C910   1.403       .  A
C909        C916   1.518       .  S
C910        C911   1.403       .  A
C910        H915   1.082       .  S
C911        C912   1.413       .  A
C911        C955   1.476       .  S
C912        C913   1.516       .  S
C913        F917   1.385       .  S
C913       F1236   1.383       .  S
C913        F919   1.382       .  S
C916        F920   1.383       .  S
C916        F921   1.383       .  S
C916        F922   1.384       .  S
F918       C1231   1.383       .  S
C923        C924   1.405       .  A
C923        C928   1.408       .  A
C923        H930   1.084       .  S
C924        C925   1.423       .  A
C925        C926   1.407       .  A
C925        C932   1.521       .  S
C926        C927   1.405       .  A
C926        H931   1.083       .  S
C927        C928   1.421       .  A
C927        C957   1.495       .  S
C928       C1247   1.518       .  S
C929       C1246   1.518       .  S
C929       F1251   1.383       .  S
C929       F1252   1.384       .  S
C929        F935   1.382       .  S
C932        F936   1.384       .  S
C932        F937   1.382       .  S
C932        F938   1.385       .  S
F933       C1247   1.383       .  S
F934       C1247   1.385       .  S
C939       C1258   1.402       .  A
C939       C1262   1.410       .  A
C939        H946   1.084   1_556  S
C940       C1257   1.400       .  A
C940        C941   1.412       .  A
C940        C959   1.474       .  S
C941        C942   1.401       .  A
C941        C948   1.521       .  S
C942        C943   1.407       .  A
C942        H947   1.082       .  S
C943        C944   1.424       .  A
C944       C1257   1.409       .  A
C944       C1263   1.520       .  S
C945       C1262   1.519   1_554  S
C945        F949   1.385       .  S
C945        F950   1.384       .  S
C945        F951   1.382       .  S
C948        F952   1.382       .  S
C948        F953   1.383       .  S
C948        F954   1.385       .  S
C955        C956   1.405       .  A
C955        C960   1.397       .  A
C956        C957   1.411       .  A
C956        H961   1.083       .  S
C957        C958   1.408       .  A
C958        C959   1.402       .  A
C958        H962   1.082       .  S
C959        C960   1.395       .  A
C960        H963   1.085       .  S
C964        C965   1.400       .  A
C964        C969   1.407       .  A
C964       C1181   1.482       .  S
C965        C966   1.400       .  A
C965        H970   1.084       .  S
C966        C967   1.402       .  A
C966       C1213   1.477       .  S
C967        C968   1.406       .  A
C967        H971   1.084       .  S
C968        C969   1.410       .  A
C968       C1194   1.492       .  S
C969        H972   1.084       .  S
C973        C974   1.403       .  A
C973        C978   1.405       .  A
C973       C1162   1.481       .  S
C974        C975   1.402       .  A
C974        H979   1.079       .  S
C975        C976   1.403       .  A
C975       C1130   1.481       .  S
C976        C977   1.401       .  A
C976        H980   1.084       .  S
C977        C978   1.400       .  A
C977       C1149   1.479       .  S
C978        H981   1.084       .  S
C982        C983   1.401       .  A
C982        C987   1.395       .  A
C982       C1114   1.470       .  S
C983        C984   1.401       .  A
C983        H988   1.084       .  S
C984        C985   1.402       .  A
C984       C1085   1.479       .  S
C985        C986   1.401       .  A
C985        H989   1.089       .  S
C986        C987   1.395       .  A
C986       C1098   1.471       .  S
C987        H990   1.091       .  S
N991        N992   1.321       .  A
N991        N997   1.313       .  A
N991      Mn1020   2.201       .  S
N992        C999   1.354       .  A
N993        N995   1.312       .  A
N993        N994   1.323       .  A
N993      Mn1009   2.209       .  S
N994       C1000   1.357       .  A
N995        N996   1.315       .  A
N995      Mn1020   2.183       .  S
N996       C1000   1.352       .  A
N997        N998   1.319       .  A
N997      Mn1009   2.192       .  S
N998        C999   1.353       .  A
C999       C1261   1.484       .  S
C1000      C1133   1.495       .  S
N1001      N1643   1.317   1_565  A
N1001      N1002   1.318       .  A
N1001     Mn1031   2.195       .  S
N1002      C1010   1.351       .  A
N1003      N1004   1.319       .  A
N1003      N1005   1.317       .  A
N1004      C1011   1.351       .  A
N1005      N1006   1.320       .  A
N1005     Mn2303   2.203   1_455  S
N1006      C1011   1.351       .  A
N1007      N1637   1.317   1_455  A
N1007      N1008   1.318       .  A
N1007     Mn1009   2.181       .  S
N1008      C1646   1.348       .  A
Mn1009    Cl1669   2.549       .  S
C1010      C1067   1.449       .  S
C1010      N1644   1.347   1_565  A
C1011      C1165   1.470       .  S
N1012      N1013   1.318       .  A
N1012      N1018   1.316       .  A
N1012     Mn2292   2.191       .  S
N1013      C1021   1.349       .  A
N1014      N1652   1.315   1_565  A
N1014     Mn1032   2.192       .  S
N1015      C1022   1.351       .  A
N1016      N1650   1.315   1_455  A
N1016     Mn1020   2.176       .  S
N1017      C1658   1.347   1_455  A
N1018      N1019   1.323       .  A
N1019      C1021   1.356       .  A
Mn1020     N2284   2.192   1_455  S
Mn1020    Cl1669   2.538       .  S
C1021      C1226   1.477       .  S
C1022      C1055   1.451       .  S
C1022      N1653   1.347   1_565  A
N1023      N1024   1.317       .  A
N1023      N1029   1.316       .  A
N1023     Mn1031   2.194       .  S
N1024      C1034   1.350       .  A
N1025      N1026   1.316       .  A
N1025      N1027   1.315       .  A
N1025     Mn1032   2.190       .  S
N1026      C1035   1.349       .  A
N1027      N1028   1.324       .  A
N1027     Mn1031   2.218       .  S
N1028      C1035   1.359       .  A
N1029      N1030   1.325       .  A
N1029     Mn1032   2.223       .  S
N1030      C1034   1.359       .  A
Mn1031     N2277   2.206       .  S
Mn1031    Cl1033   2.548       .  S
Mn1032    Cl1033   2.548       .  S
Cl1033    Mn1645   2.542   1_565  S
Cl1033    Mn1656   2.544   1_565  S
C1034      C1242   1.491       .  S
C1035      C1146   1.497       .  S
N1036      N1037   1.322       .  A
N1036      N1042   1.313       .  A
N1036     Mn1065   2.210       .  S
N1037      C1044   1.358       .  A
N1038      N1040   1.313       .  A
N1038      N1039   1.323       .  A
N1038     Mn1054   2.200       .  S
N1039      C1045   1.356       .  A
N1040      N1041   1.313       .  A
N1040     Mn1065   2.187       .  S
N1041      C1045   1.352       .  A
N1042      N1043   1.318       .  A
N1042     Mn1054   2.189       .  S
N1043      C1044   1.350       .  A
C1044      C1210   1.494       .  S
C1045      C1082   1.490       .  S
N1046      N1688   1.315   1_565  A
N1046      N1047   1.320       .  A
N1046     Mn1076   2.187       .  S
N1047      C1055   1.350       .  A
N1048      N1049   1.319       .  A
N1048      N1050   1.316       .  A
N1049      C1056   1.352       .  A
N1050      N1051   1.318       .  A
N1050     Mn2348   2.184   1_455  S
N1051      C1056   1.348       .  A
N1052      N1682   1.315   1_455  A
N1052      N1053   1.315       .  A
N1052     Mn1054   2.177       .  S
N1053      C1691   1.347   1_455  A
Mn1054    Cl1714   2.543       .  S
C1055      N1689   1.348   1_565  A
C1056      C1117   1.460       .  S
N1057      N1058   1.320       .  A
N1057      N1063   1.316       .  A
N1057     Mn2337   2.203       .  S
N1058      C1066   1.351       .  A
N1059      N1697   1.316   1_565  A
N1059      N1060   1.316       .  A
N1059     Mn1077   2.177       .  S
N1060      C1067   1.346       .  A
N1061      N1695   1.316   1_455  A
N1061      N1062   1.319       .  A
N1061     Mn1065   2.192       .  S
N1062      C1703   1.351       .  A
N1063      N1064   1.322       .  A
N1064      C1066   1.353       .  A
Mn1065     N2329   2.197   1_455  S
Mn1065    Cl1714   2.539       .  S
C1066      C1178   1.476       .  S
C1067      N1698   1.351   1_565  A
N1068      N1069   1.318       .  A
N1068      N1074   1.314       .  A
N1068     Mn1076   2.194       .  S
N1069      C1079   1.350       .  A
N1070      N1071   1.317       .  A
N1070      N1072   1.314       .  A
N1070     Mn1077   2.183       .  S
N1071      C1080   1.351       .  A
N1072      N1073   1.318       .  A
N1072     Mn1076   2.194       .  S
N1073      C1080   1.351       .  A
N1074      N1075   1.325       .  A
N1074     Mn1077   2.221       .  S
N1075      C1079   1.359       .  A
Mn1076     N2322   2.193       .  S
Mn1076    Cl1078   2.544       .  S
Mn1077    Cl1078   2.545       .  S
Cl1078    Mn1690   2.542   1_565  S
Cl1078    Mn1701   2.543   1_565  S
C1079      C1197   1.493       .  S
C1080      C1101   1.468       .  S
C1081      C1082   1.406       .  A
C1081      C1086   1.398       .  A
C1081      H1088   1.081       .  S
C1082      C1083   1.423       .  A
C1083      C1084   1.412       .  A
C1083      C1090   1.519       .  S
C1084      C1085   1.404       .  A
C1084      H1089   1.081       .  S
C1085      C1086   1.416       .  A
C1086      C1087   1.524       .  S
C1087      F1091   1.385       .  S
C1087      F1092   1.380       .  S
C1087      F1093   1.382       .  S
C1090      F1094   1.383       .  S
C1090      F1095   1.383       .  S
C1090      F1096   1.385       .  S
C1097      C1098   1.404       .  A
C1097      C1102   1.406       .  A
C1097      H1104   1.082       .  S
C1098      C1099   1.416       .  A
C1099      C1100   1.399       .  A
C1099      C1106   1.521       .  S
C1100      C1101   1.401       .  A
C1100      H1105   1.082       .  S
C1101      C1102   1.414       .  A
C1102      C1103   1.519       .  S
C1103      F1107   1.385       .  S
C1103      F1108   1.382       .  S
C1103      F1109   1.384       .  S
C1106      F1110   1.381       .  S
C1106      F1111   1.382       .  S
C1106      F1112   1.385       .  S
C1113      C1114   1.401       .  A
C1113      C1118   1.403       .  A
C1113      H1120   1.083       .  S
C1114      C1115   1.419       .  A
C1115      C1116   1.401       .  A
C1115      C1122   1.520       .  S
C1116      C1117   1.397       .  A
C1116      H1121   1.083       .  S
C1117      C1118   1.412       .  A
C1118      C1119   1.516       .  S
C1119      F1123   1.385       .  S
C1119      F1124   1.383       .  S
C1119      F1125   1.383       .  S
C1122      F1126   1.382       .  S
C1122      F1127   1.385       .  S
C1122      F1128   1.380       .  S
C1129      C1130   1.403       .  A
C1129      C1134   1.411       .  A
C1129      H1136   1.082       .  S
C1130      C1131   1.415       .  A
C1131      C1132   1.402       .  A
C1131      C1138   1.524       .  S
C1132      C1133   1.409       .  A
C1132      H1137   1.079       .  S
C1133      C1134   1.423       .  A
C1134      C1135   1.519       .  S
C1135      F1139   1.385       .  S
C1135      F1140   1.384       .  S
C1135      F1141   1.383       .  S
C1138      F1142   1.381       .  S
C1138      F1143   1.383       .  S
C1138      F1144   1.385       .  S
C1145      C1146   1.410       .  A
C1145      C1150   1.409       .  A
C1145      H1152   1.081       .  S
C1146      C1147   1.431       .  A
C1147      C1148   1.407       .  A
C1147      C1154   1.524       .  S
C1148      C1149   1.398       .  A
C1148      H1153   1.083       .  S
C1149      C1150   1.410       .  A
C1150      C1151   1.517       .  S
C1151      F1155   1.384       .  S
C1151      F1156   1.383       .  S
C1151      F1157   1.382       .  S
C1154      F1158   1.383       .  S
C1154      F1159   1.384       .  S
C1154      F1160   1.385       .  S
C1161      C1162   1.405       .  A
C1161      C1166   1.401       .  A
C1161      H1168   1.083       .  S
C1162      C1163   1.418       .  A
C1163      C1164   1.410       .  A
C1163      C1170   1.520       .  S
C1164      C1165   1.404       .  A
C1164      H1169   1.083       .  S
C1165      C1166   1.411       .  A
C1166      C1167   1.519       .  S
C1167      F1171   1.384       .  S
C1167      F1172   1.383       .  S
C1167      F1173   1.383       .  S
C1170      F1174   1.381       .  S
C1170      F1175   1.383       .  S
C1170      F1176   1.385       .  S
C1177      C1178   1.400       .  A
C1177      C1182   1.406       .  A
C1177      H1184   1.084       .  S
C1178      C1179   1.416       .  A
C1179      C1180   1.410       .  A
C1179      C1186   1.518       .  S
C1180      C1181   1.404       .  A
C1180      H1185   1.084       .  S
C1181      C1182   1.417       .  A
C1182      C1183   1.519       .  S
C1183      F1187   1.384       .  S
C1183      F1188   1.381       .  S
C1183      F1189   1.384       .  S
C1186      F1190   1.383       .  S
C1186      F1191   1.382       .  S
C1186      F1192   1.385       .  S
C1193      C1194   1.404       .  A
C1193      C1198   1.408       .  A
C1193      H1200   1.082       .  S
C1194      C1195   1.420       .  A
C1195      C1196   1.409       .  A
C1195      C1202   1.518       .  S
C1196      C1197   1.406       .  A
C1196      H1201   1.084       .  S
C1197      C1198   1.423       .  A
C1198      C1199   1.520       .  S
C1199      F1203   1.385       .  S
C1199      F1204   1.384       .  S
C1199      F1205   1.382       .  S
C1202      F1206   1.382       .  S
C1202      F1207   1.383       .  S
C1202      F1208   1.384       .  S
C1209      C1210   1.409       .  A
C1209      C1214   1.407       .  A
C1209      H1216   1.083       .  S
C1210      C1211   1.429       .  A
C1211      C1212   1.407       .  A
C1211      C1218   1.522       .  S
C1212      C1213   1.398       .  A
C1212      H1217   1.084       .  S
C1213      C1214   1.410       .  A
C1214      C1215   1.516       .  S
C1215      F1219   1.384       .  S
C1215      F1220   1.382       .  S
C1215      F1221   1.383       .  S
C1218      F1222   1.383       .  S
C1218      F1223   1.383       .  S
C1218      F1224   1.385       .  S
C1225      C1226   1.402       .  A
C1225      C1230   1.405   1_556  A
C1225      H1232   1.085   1_556  S
C1226      C1227   1.417       .  A
C1227      C1228   1.407       .  A
C1227      C1234   1.520       .  S
C1228      C1229   1.405       .  A
C1228      H1233   1.083       .  S
C1229      C1230   1.418   1_556  A
C1230      C1231   1.518       .  S
C1231      F1235   1.384       .  S
C1231      F1237   1.382       .  S
C1234      F1238   1.383       .  S
C1234      F1239   1.382       .  S
C1234      F1240   1.385       .  S
C1241      C1242   1.405       .  A
C1241      C1246   1.409   1_556  A
C1241      H1248   1.084   1_556  S
C1242      C1243   1.422       .  A
C1243      C1244   1.406       .  A
C1243      C1250   1.521       .  S
C1244      C1245   1.406       .  A
C1244      H1249   1.083       .  S
C1245      C1246   1.422   1_556  A
C1247      F1253   1.383       .  S
C1250      F1254   1.384       .  S
C1250      F1255   1.382       .  S
C1250      F1256   1.385       .  S
C1257      H1264   1.084       .  S
C1258      C1259   1.413       .  A
C1259      C1260   1.403       .  A
C1259      C1266   1.520       .  S
C1260      C1261   1.405       .  A
C1260      H1265   1.083       .  S
C1261      C1262   1.420       .  A
C1263      F1267   1.385       .  S
C1263      F1268   1.384       .  S
C1263      F1269   1.383       .  S
C1266      F1270   1.383       .  S
C1266      F1271   1.382       .  S
C1266      F1272   1.384       .  S
C1273      C1274   1.404       .  A
C1273      C1278   1.399       .  A
C1273      C1865   1.476       .  S
C1274      C1275   1.407       .  A
C1274      H1279   1.084       .  S
C1275      C1276   1.406       .  A
C1275      C1881   1.489       .  S
C1276      C1277   1.401       .  A
C1276      H1280   1.083       .  S
C1277      C1278   1.398       .  A
C1277      C1894   1.475       .  S
C1278      H1281   1.084       .  S
C1282      C1283   1.402       .  A
C1282      C1287   1.405       .  A
C1282      C1499   1.484       .  S
C1283      C1284   1.404       .  A
C1283      H1288   1.084       .  S
C1284      C1285   1.405       .  A
C1284      C1531   1.486       .  S
C1285      C1286   1.407       .  A
C1285      H1289   1.083       .  S
C1286      C1287   1.409       .  A
C1286      C1512   1.492       .  S
C1287      H1290   1.084       .  S
C1291      C1292   1.404       .  A
C1291      C1296   1.400       .  A
C1291      C1480   1.481       .  S
C1292      C1293   1.405       .  A
C1292      H1297   1.082       .  S
C1293      C1294   1.405       .  A
C1293      C1448   1.486       .  S
C1294      C1295   1.406       .  A
C1294      H1298   1.084       .  S
C1295      C1296   1.403       .  A
C1295      C1467   1.488       .  S
C1296      H1299   1.084       .  S
C1300      C1301   1.403       .  A
C1300      C1305   1.402       .  A
C1300      C1432   1.478       .  S
C1301      C1302   1.401       .  A
C1301      H1306   1.085       .  S
C1302      C1303   1.401       .  A
C1302      C1403   1.478       .  S
C1303      C1304   1.400       .  A
C1303      H1307   1.089       .  S
C1304      C1305   1.400       .  A
C1304      C1416   1.478       .  S
C1305      H1308   1.090       .  S
N1309      N1310   1.323       .  A
N1309      N1315   1.314       .  A
N1309     Mn1338   2.209       .  S
N1310      C1317   1.356       .  A
N1311      N1313   1.312       .  A
N1311      N1312   1.325       .  A
N1311     Mn1327   2.218       .  S
N1312      C1318   1.359       .  A
N1313      N1314   1.317       .  A
N1313     Mn1338   2.186       .  S
N1314      C1318   1.353       .  A
N1315      N1316   1.316       .  A
N1315     Mn1327   2.191       .  S
N1316      C1317   1.352       .  A
C1317      C1579   1.488       .  S
C1318      C1451   1.500       .  S
N1319      N1320   1.317       .  A
N1319     Mn1349   2.199       .  S
N1320      C1328   1.351   1_655  A
N1321      N1322   1.320       .  A
N1321      N1323   1.316       .  A
N1321     Mn1963   2.200       .  S
N1322      C1329   1.352       .  A
N1323      N1324   1.320       .  A
N1324      C1329   1.352       .  A
N1325      N1326   1.318       .  A
N1325     Mn1327   2.182       .  S
Mn1327     N1957   2.201   1_545  S
C1328      C1385   1.451       .  S
C1329      C1483   1.473       .  S
N1330      N1331   1.319       .  A
N1330      N1336   1.317       .  A
N1331      C1339   1.349       .  A
N1332      N1651   1.318       .  A
N1332     Mn1350   2.183       .  S
N1333      N1650   1.318   1_554  A
N1333      C1340   1.350       .  A
N1334      N1653   1.316       .  A
N1334     Mn1338   2.181       .  S
N1335      N1652   1.317   1_554  A
N1336      N1337   1.323       .  A
N1336     Mn1986   2.221   1_545  S
N1337      C1339   1.355       .  A
C1339      C1544   1.473       .  S
C1340      C1373   1.446   1_655  S
N1341      N1342   1.320       .  A
N1341      N1347   1.315       .  A
N1341     Mn1349   2.209       .  S
N1342      C1352   1.354       .  A
N1343      N1344   1.314       .  A
N1343      N1345   1.314       .  A
N1343     Mn1350   2.186       .  S
N1344      C1353   1.348       .  A
N1345      N1346   1.324       .  A
N1345     Mn1349   2.214       .  S
N1346      C1353   1.359       .  A
N1347      N1348   1.323       .  A
N1347     Mn1350   2.217       .  S
N1348      C1352   1.357       .  A
Mn1349    Cl1351   2.548       .  S
Mn1350     N1972   2.220       .  S
Mn1350    Cl1351   2.548       .  S
C1352      C1560   1.498       .  S
C1353      C1464   1.488       .  S
N1354      N1355   1.322       .  A
N1354      N1360   1.314       .  A
N1354     Mn1383   2.209       .  S
N1355      C1362   1.358       .  A
N1356      N1358   1.313       .  A
N1356      N1357   1.321       .  A
N1356     Mn1372   2.199       .  S
N1357      C1363   1.354       .  A
N1358      N1359   1.316       .  A
N1358     Mn1383   2.192       .  S
N1359      C1363   1.354       .  A
N1360      N1361   1.318       .  A
N1360     Mn1372   2.196       .  S
N1361      C1362   1.351       .  A
C1362      C1528   1.494       .  S
C1363      C1400   1.492       .  S
N1364      N1365   1.317       .  A
N1364     Mn1394   2.176       .  S
N1365      C1373   1.348   1_655  A
N1366      N1367   1.320       .  A
N1366      N1368   1.316       .  A
N1366     Mn2008   2.206       .  S
N1367      C1374   1.353       .  A
N1368      N1369   1.317       .  A
N1369      C1374   1.348       .  A
N1370      N1371   1.318       .  A
N1370     Mn1372   2.194       .  S
Mn1372     N2002   2.192   1_545  S
C1374      C1435   1.466       .  S
N1375      N1376   1.321       .  A
N1375      N1381   1.316       .  A
N1376      C1384   1.350       .  A
N1377      N1378   1.315       .  A
N1377     Mn1395   2.180       .  S
N1378      C1385   1.346   1_655  A
N1379      N1380   1.319       .  A
N1379     Mn1383   2.188       .  S
N1381      N1382   1.323       .  A
N1381     Mn2031   2.220   1_545  S
N1382      C1384   1.355       .  A
C1384      C1496   1.476       .  S
N1386      N1387   1.317       .  A
N1386      N1392   1.314       .  A
N1386     Mn1394   2.192       .  S
N1387      C1397   1.351       .  A
N1388      N1389   1.317       .  A
N1388      N1390   1.314       .  A
N1388     Mn1395   2.189       .  S
N1389      C1398   1.352       .  A
N1390      N1391   1.320       .  A
N1390     Mn1394   2.194       .  S
N1391      C1398   1.352       .  A
N1392      N1393   1.324       .  A
N1392     Mn1395   2.214       .  S
N1393      C1397   1.359       .  A
Mn1394    Cl1396   2.544   1_655  S
Mn1395     N2017   2.207       .  S
Mn1395    Cl1396   2.546   1_655  S
C1397      C1515   1.494       .  S
C1398      C1419   1.473       .  S
C1399      C1400   1.407       .  A
C1399      C1404   1.400       .  A
C1399      H1406   1.080       .  S
C1400      C1401   1.425       .  A
C1401      C1402   1.410       .  A
C1401      C1408   1.519       .  S
C1402      C1403   1.402       .  A
C1402      H1407   1.082       .  S
C1403      C1404   1.415       .  A
C1404      C1405   1.522       .  S
C1405      F1409   1.385       .  S
C1405      F1410   1.381       .  S
C1405      F1411   1.379       .  S
C1408      F1412   1.383       .  S
C1408      F1413   1.383       .  S
C1408      F1414   1.385       .  S
C1415      C1416   1.405       .  A
C1415      C1420   1.410       .  A
C1415      H1422   1.082       .  S
C1416      C1417   1.418       .  A
C1417      C1418   1.398       .  A
C1417      C1424   1.519       .  S
C1418      C1419   1.399       .  A
C1418      H1423   1.082       .  S
C1419      C1420   1.415       .  A
C1420      C1421   1.517       .  S
C1421      F1425   1.384       .  S
C1421      F1426   1.382       .  S
C1421      F1427   1.384       .  S
C1424      F1428   1.381       .  S
C1424      F1429   1.380       .  S
C1424      F1430   1.384       .  S
C1431      C1432   1.403       .  A
C1431      C1436   1.405       .  A
C1431      H1438   1.082       .  S
C1432      C1433   1.420       .  A
C1433      C1434   1.402       .  A
C1433      C1440   1.519       .  S
C1434      C1435   1.397       .  A
C1434      H1439   1.082       .  S
C1435      C1436   1.414       .  A
C1436      C1437   1.518       .  S
C1437      F1441   1.384       .  S
C1437      F1442   1.383       .  S
C1437      F1443   1.383       .  S
C1440      F1444   1.382       .  S
C1440      F1445   1.385       .  S
C1440      F1446   1.380       .  S
C1447      C1448   1.404       .  A
C1447      C1452   1.414       .  A
C1447      H1454   1.082       .  S
C1448      C1449   1.415       .  A
C1449      C1450   1.405       .  A
C1449      C1456   1.522       .  S
C1450      C1451   1.410       .  A
C1450      H1455   1.080       .  S
C1451      C1452   1.425       .  A
C1452      C1453   1.519       .  S
C1453      F1457   1.385       .  S
C1453      F1458   1.384       .  S
C1453      F1459   1.383       .  S
C1456      F1460   1.381       .  S
C1456      F1461   1.383       .  S
C1456      F1462   1.385       .  S
C1463      C1464   1.407       .  A
C1463      C1468   1.408       .  A
C1463      H1470   1.084       .  S
C1464      C1465   1.423       .  A
C1465      C1466   1.403       .  A
C1465      C1472   1.522       .  S
C1466      C1467   1.403       .  A
C1466      H1471   1.083       .  S
C1467      C1468   1.418       .  A
C1468      C1469   1.518       .  S
C1469      F1473   1.384       .  S
C1469      F1474   1.383       .  S
C1469      F1475   1.382       .  S
C1472      F1476   1.384       .  S
C1472      F1477   1.383       .  S
C1472      F1478   1.385       .  S
C1479      C1480   1.405       .  A
C1479      C1484   1.406       .  A
C1479      H1486   1.083       .  S
C1480      C1481   1.414       .  A
C1481      C1482   1.408       .  A
C1481      C1488   1.517       .  S
C1482      C1483   1.403       .  A
C1482      H1487   1.083       .  S
C1483      C1484   1.414       .  A
C1484      C1485   1.519       .  S
C1485      F1489   1.384       .  S
C1485      F1490   1.383       .  S
C1485      F1491   1.383       .  S
C1488      F1492   1.381       .  S
C1488      F1493   1.384       .  S
C1488      F1494   1.385       .  S
C1495      C1496   1.398       .  A
C1495      C1500   1.406       .  A
C1495      H1502   1.084       .  S
C1496      C1497   1.416       .  A
C1497      C1498   1.412       .  A
C1497      C1504   1.517       .  S
C1498      C1499   1.404       .  A
C1498      H1503   1.084       .  S
C1499      C1500   1.419       .  A
C1500      C1501   1.518       .  S
C1501      F1505   1.384       .  S
C1501      F1506   1.383       .  S
C1501      F1507   1.380       .  S
C1504      F1508   1.383       .  S
C1504      F1509   1.383       .  S
C1504      F1510   1.385       .  S
C1511      C1512   1.403       .  A
C1511      C1516   1.408       .  A
C1511      H1518   1.083       .  S
C1512      C1513   1.420       .  A
C1513      C1514   1.408       .  A
C1513      C1520   1.518       .  S
C1514      C1515   1.406       .  A
C1514      H1519   1.084       .  S
C1515      C1516   1.424       .  A
C1516      C1517   1.521       .  S
C1517      F1521   1.385       .  S
C1517      F1522   1.384       .  S
C1517      F1523   1.383       .  S
C1520      F1524   1.382       .  S
C1520      F1525   1.383       .  S
C1520      F1526   1.384       .  S
C1527      C1528   1.409       .  A
C1527      C1532   1.408       .  A
C1527      H1534   1.083       .  S
C1528      C1529   1.425       .  A
C1529      C1530   1.406       .  A
C1529      C1536   1.521       .  S
C1530      C1531   1.401       .  A
C1530      H1535   1.081       .  S
C1531      C1532   1.414       .  A
C1532      C1533   1.517       .  S
C1533      F1537   1.385       .  S
C1533      F1538   1.379       .  S
C1533      F1539   1.384       .  S
C1536      F1540   1.382       .  S
C1536      F1541   1.384       .  S
C1536      F1542   1.385       .  S
C1543      C1544   1.403       .  A
C1543      C1548   1.408       .  A
C1543      H1550   1.083       .  S
C1544      C1545   1.414       .  A
C1545      C1546   1.405       .  A
C1545      C1552   1.518       .  S
C1546      C1547   1.402       .  A
C1546      H1551   1.083       .  S
C1547      C1548   1.414       .  A
C1547      C1591   1.478       .  S
C1548      C1549   1.517       .  S
C1549      F1553   1.385       .  S
C1549      F1872   1.382       .  S
C1549      F1555   1.384       .  S
C1552      F1556   1.383       .  S
C1552      F1557   1.383       .  S
C1552      F1558   1.385       .  S
F1554      C1867   1.382       .  S
C1559      C1560   1.409       .  A
C1559      C1564   1.409       .  A
C1559      H1566   1.084       .  S
C1560      C1561   1.424       .  A
C1561      C1562   1.408       .  A
C1561      C1568   1.519       .  S
C1562      C1563   1.404       .  A
C1562      H1567   1.083       .  S
C1563      C1564   1.418       .  A
C1563      C1593   1.492       .  S
C1564      C1883   1.519       .  S
C1565      C1882   1.519   1_554  S
C1565      F1887   1.383       .  S
C1565      F1888   1.384       .  S
C1565      F1571   1.383       .  S
C1568      F1572   1.384       .  S
C1568      F1573   1.382       .  S
C1568      F1574   1.385       .  S
F1569      C1883   1.383       .  S
F1570      C1883   1.384       .  S
C1575      C1894   1.400       .  A
C1575      C1898   1.410       .  A
C1575      H1582   1.084   1_556  S
C1576      C1893   1.403       .  A
C1576      C1577   1.412       .  A
C1576      C1595   1.478       .  S
C1577      C1578   1.400       .  A
C1577      C1584   1.521       .  S
C1578      C1579   1.406       .  A
C1578      H1583   1.082       .  S
C1579      C1580   1.421       .  A
C1580      C1893   1.413       .  A
C1580      C1899   1.519       .  S
C1581      C1898   1.520   1_554  S
C1581      F1585   1.385       .  S
C1581      F1586   1.383       .  S
C1581      F1587   1.383       .  S
C1584      F1588   1.383       .  S
C1584      F1589   1.382       .  S
C1584      F1590   1.385       .  S
C1591      C1592   1.404       .  A
C1591      C1596   1.400       .  A
C1592      C1593   1.408       .  A
C1592      H1597   1.084       .  S
C1593      C1594   1.407       .  A
C1594      C1595   1.404       .  A
C1594      H1598   1.084       .  S
C1595      C1596   1.399       .  A
C1596      H1599   1.085       .  S
C1600      C1601   1.401       .  A
C1600      C1605   1.406       .  A
C1600      C1817   1.483       .  S
C1601      C1602   1.404       .  A
C1601      H1606   1.084       .  S
C1602      C1603   1.404       .  A
C1602      C1849   1.483       .  S
C1603      C1604   1.404       .  A
C1603      H1607   1.083       .  S
C1604      C1605   1.409       .  A
C1604      C1830   1.489       .  S
C1605      H1608   1.084       .  S
C1609      C1610   1.402       .  A
C1609      C1614   1.403       .  A
C1609      C1798   1.483       .  S
C1610      C1611   1.402       .  A
C1610      H1615   1.082       .  S
C1611      C1612   1.406       .  A
C1611      C1766   1.483       .  S
C1612      C1613   1.407       .  A
C1612      H1616   1.084       .  S
C1613      C1614   1.407       .  A
C1613      C1785   1.493       .  S
C1614      H1617   1.084       .  S
C1618      C1619   1.402       .  A
C1618      C1623   1.397       .  A
C1618      C1750   1.473       .  S
C1619      C1620   1.400       .  A
C1619      H1624   1.086       .  S
C1620      C1621   1.403       .  A
C1620      C1721   1.479       .  S
C1621      C1622   1.403       .  A
C1621      H1625   1.088       .  S
C1622      C1623   1.397       .  A
C1622      C1734   1.476       .  S
C1623      H1626   1.090       .  S
N1627      N1628   1.321       .  A
N1627      N1633   1.313       .  A
N1627     Mn1656   2.200       .  S
N1628      C1635   1.354       .  A
N1629      N1631   1.313       .  A
N1629      N1630   1.322       .  A
N1629     Mn1645   2.206       .  S
N1630      C1636   1.356       .  A
N1631      N1632   1.317       .  A
N1631     Mn1656   2.186       .  S
N1632      C1636   1.354       .  A
N1633      N1634   1.316       .  A
N1633     Mn1645   2.189       .  S
N1634      C1635   1.354       .  A
C1635      C1897   1.492       .  S
C1636      C1769   1.495       .  S
N1637      N1638   1.316       .  A
N1637     Mn1667   2.191       .  S
N1638      C1646   1.349   1_655  A
N1639      N1640   1.322       .  A
N1639      N1641   1.317       .  A
N1639     Mn2281   2.214       .  S
N1640      C1647   1.354       .  A
N1641      N1642   1.321       .  A
N1642      C1647   1.351       .  A
N1643      N1644   1.317       .  A
N1643     Mn1645   2.179       .  S
Mn1645     N2275   2.196   1_545  S
C1646      C1703   1.447       .  S
C1647      C1801   1.477       .  S
N1648      N1649   1.317       .  A
N1648      N1654   1.316       .  A
N1649      C1657   1.348       .  A
N1650     Mn1668   2.188       .  S
N1651      C1658   1.350       .  A
N1652     Mn1656   2.179       .  S
N1654      N1655   1.322       .  A
N1654     Mn2304   2.216   1_545  S
N1655      C1657   1.354       .  A
C1657      C1862   1.470       .  S
C1658      C1691   1.446       .  S
N1659      N1660   1.318       .  A
N1659      N1665   1.314       .  A
N1659     Mn1667   2.197       .  S
N1660      C1670   1.351       .  A
N1661      N1662   1.317       .  A
N1661      N1663   1.315       .  A
N1661     Mn1668   2.196       .  S
N1662      C1671   1.351       .  A
N1663      N1664   1.324       .  A
N1663     Mn1667   2.217       .  S
N1664      C1671   1.358       .  A
N1665      N1666   1.323       .  A
N1665     Mn1668   2.209       .  S
N1666      C1670   1.357       .  A
Mn1667    Cl1669   2.540   1_655  S
Mn1668     N2290   2.208       .  S
Mn1668    Cl1669   2.549   1_655  S
C1670      C1878   1.490       .  S
C1671      C1782   1.494       .  S
N1672      N1673   1.320       .  A
N1672      N1678   1.313       .  A
N1672     Mn1701   2.205       .  S
N1673      C1680   1.357       .  A
N1674      N1676   1.314       .  A
N1674      N1675   1.321       .  A
N1674     Mn1690   2.198       .  S
N1675      C1681   1.353       .  A
N1676      N1677   1.318       .  A
N1676     Mn1701   2.202       .  S
N1677      C1681   1.356       .  A
N1678      N1679   1.319       .  A
N1678     Mn1690   2.192       .  S
N1679      C1680   1.352       .  A
C1680      C1846   1.493       .  S
C1681      C1718   1.493       .  S
N1682      N1683   1.319       .  A
N1682     Mn1712   2.185       .  S
N1683      C1691   1.349       .  A
N1684      N1685   1.320       .  A
N1684      N1686   1.316       .  A
N1684     Mn2326   2.197       .  S
N1685      C1692   1.351       .  A
N1686      N1687   1.316       .  A
N1687      C1692   1.348       .  A
N1688      N1689   1.316       .  A
N1688     Mn1690   2.183       .  S
Mn1690     N2320   2.197   1_545  S
C1692      C1753   1.460       .  S
N1693      N1694   1.319       .  A
N1693      N1699   1.316       .  A
N1694      C1702   1.351       .  A
N1695      N1696   1.315       .  A
N1695     Mn1713   2.178       .  S
N1696      C1703   1.346   1_655  A
N1697      N1698   1.319       .  A
N1697     Mn1701   2.199       .  S
N1699      N1700   1.321       .  A
N1699     Mn2349   2.199   1_545  S
N1700      C1702   1.352       .  A
C1702      C1814   1.470       .  S
N1704      N1705   1.318       .  A
N1704      N1710   1.314       .  A
N1704     Mn1712   2.195       .  S
N1705      C1715   1.351       .  A
N1706      N1707   1.316       .  A
N1706      N1708   1.315       .  A
N1706     Mn1713   2.186       .  S
N1707      C1716   1.351       .  A
N1708      N1709   1.320       .  A
N1708     Mn1712   2.197       .  S
N1709      C1716   1.352       .  A
N1710      N1711   1.324       .  A
N1710     Mn1713   2.219       .  S
N1711      C1715   1.359       .  A
Mn1712    Cl1714   2.542   1_655  S
Mn1713     N2335   2.213       .  S
Mn1713    Cl1714   2.544   1_655  S
C1715      C1833   1.498       .  S
C1716      C1737   1.471       .  S
C1717      C1718   1.406       .  A
C1717      C1722   1.401       .  A
C1717      H1724   1.080       .  S
C1718      C1719   1.425       .  A
C1719      C1720   1.411       .  A
C1719      C1726   1.519       .  S
C1720      C1721   1.402       .  A
C1720      H1725   1.082       .  S
C1721      C1722   1.415       .  A
C1722      C1723   1.521       .  S
C1723      F1727   1.384       .  S
C1723      F1728   1.381       .  S
C1723      F1729   1.381       .  S
C1726      F1730   1.384       .  S
C1726      F1731   1.382       .  S
C1726      F1732   1.385       .  S
C1733      C1734   1.405       .  A
C1733      C1738   1.407       .  A
C1733      H1740   1.082       .  S
C1734      C1735   1.417       .  A
C1735      C1736   1.400       .  A
C1735      C1742   1.521       .  S
C1736      C1737   1.401       .  A
C1736      H1741   1.082       .  S
C1737      C1738   1.414       .  A
C1738      C1739   1.518       .  S
C1739      F1743   1.384       .  S
C1739      F1744   1.382       .  S
C1739      F1745   1.384       .  S
C1742      F1746   1.381       .  S
C1742      F1747   1.381       .  S
C1742      F1748   1.385       .  S
C1749      C1750   1.401       .  A
C1749      C1754   1.402       .  A
C1749      H1756   1.082       .  S
C1750      C1751   1.421       .  A
C1751      C1752   1.402       .  A
C1751      C1758   1.521       .  S
C1752      C1753   1.397       .  A
C1752      H1757   1.082       .  S
C1753      C1754   1.412       .  A
C1754      C1755   1.518       .  S
C1755      F1759   1.384       .  S
C1755      F1760   1.383       .  S
C1755      F1761   1.382       .  S
C1758      F1762   1.381       .  S
C1758      F1763   1.385       .  S
C1758      F1764   1.381       .  S
C1765      C1766   1.403       .  A
C1765      C1770   1.412       .  A
C1765      H1772   1.082       .  S
C1766      C1767   1.415       .  A
C1767      C1768   1.403       .  A
C1767      C1774   1.522       .  S
C1768      C1769   1.408       .  A
C1768      H1773   1.081       .  S
C1769      C1770   1.424       .  A
C1770      C1771   1.520       .  S
C1771      F1775   1.385       .  S
C1771      F1776   1.384       .  S
C1771      F1777   1.383       .  S
C1774      F1778   1.381       .  S
C1774      F1779   1.383       .  S
C1774      F1780   1.385       .  S
C1781      C1782   1.408       .  A
C1781      C1786   1.409       .  A
C1781      H1788   1.084       .  S
C1782      C1783   1.424       .  A
C1783      C1784   1.406       .  A
C1783      C1790   1.521       .  S
C1784      C1785   1.405       .  A
C1784      H1789   1.082       .  S
C1785      C1786   1.420       .  A
C1786      C1787   1.519       .  S
C1787      F1791   1.385       .  S
C1787      F1792   1.382       .  S
C1787      F1793   1.383       .  S
C1790      F1794   1.384       .  S
C1790      F1795   1.383       .  S
C1790      F1796   1.385       .  S
C1797      C1798   1.404       .  A
C1797      C1802   1.406       .  A
C1797      H1804   1.083       .  S
C1798      C1799   1.416       .  A
C1799      C1800   1.411       .  A
C1799      C1806   1.518       .  S
C1800      C1801   1.405       .  A
C1800      H1805   1.083       .  S
C1801      C1802   1.413       .  A
C1802      C1803   1.518       .  S
C1803      F1807   1.384       .  S
C1803      F1808   1.384       .  S
C1803      F1809   1.382       .  S
C1806      F1810   1.382       .  S
C1806      F1811   1.383       .  S
C1806      F1812   1.384       .  S
C1813      C1814   1.397       .  A
C1813      C1818   1.404       .  A
C1813      H1820   1.084       .  S
C1814      C1815   1.414       .  A
C1815      C1816   1.411       .  A
C1815      C1822   1.518       .  S
C1816      C1817   1.405       .  A
C1816      H1821   1.083       .  S
C1817      C1818   1.419       .  A
C1818      C1819   1.518       .  S
C1819      F1823   1.385       .  S
C1819      F1824   1.380       .  S
C1819      F1825   1.383       .  S
C1822      F1826   1.384       .  S
C1822      F1827   1.383       .  S
C1822      F1828   1.384       .  S
C1829      C1830   1.401       .  A
C1829      C1834   1.407       .  A
C1829      H1836   1.081       .  S
C1830      C1831   1.417       .  A
C1831      C1832   1.410       .  A
C1831      C1838   1.518       .  S
C1832      C1833   1.409       .  A
C1832      H1837   1.083       .  S
C1833      C1834   1.427       .  A
C1834      C1835   1.521       .  S
C1835      F1839   1.385       .  S
C1835      F1840   1.383       .  S
C1835      F1841   1.383       .  S
C1838      F1842   1.383       .  S
C1838      F1843   1.381       .  S
C1838      F1844   1.385       .  S
C1845      C1846   1.407       .  A
C1845      C1850   1.404       .  A
C1845      H1852   1.084       .  S
C1846      C1847   1.425       .  A
C1847      C1848   1.408       .  A
C1847      C1854   1.522       .  S
C1848      C1849   1.403       .  A
C1848      H1853   1.083       .  S
C1849      C1850   1.417       .  A
C1850      C1851   1.519       .  S
C1851      F1855   1.384       .  S
C1851      F1856   1.384       .  S
C1851      F1857   1.380       .  S
C1854      F1858   1.383       .  S
C1854      F1859   1.383       .  S
C1854      F1860   1.385       .  S
C1861      C1862   1.402       .  A
C1861      C1866   1.408   1_556  A
C1861      H1868   1.083   1_556  S
C1862      C1863   1.414       .  A
C1863      C1864   1.403       .  A
C1863      C1870   1.519       .  S
C1864      C1865   1.402       .  A
C1864      H1869   1.083       .  S
C1865      C1866   1.414   1_556  A
C1866      C1867   1.517       .  S
C1867      F1871   1.385       .  S
C1867      F1873   1.383       .  S
C1870      F1874   1.383       .  S
C1870      F1875   1.382       .  S
C1870      F1876   1.385       .  S
C1877      C1878   1.406       .  A
C1877      C1882   1.407       .  A
C1877      H1884   1.084       .  S
C1878      C1879   1.422       .  A
C1879      C1880   1.406       .  A
C1879      C1886   1.521       .  S
C1880      C1881   1.404       .  A
C1880      H1885   1.083       .  S
C1881      C1882   1.419       .  A
C1883      F1889   1.382       .  S
C1886      F1890   1.384       .  S
C1886      F1891   1.383       .  S
C1886      F1892   1.385       .  S
C1893      H1900   1.083       .  S
C1894      C1895   1.412       .  A
C1895      C1896   1.401       .  A
C1895      C1902   1.521       .  S
C1896      C1897   1.409       .  A
C1896      H1901   1.082       .  S
C1897      C1898   1.425       .  A
C1899      F1903   1.385       .  S
C1899      F1904   1.384       .  S
C1899      F1905   1.382       .  S
C1902      F1906   1.382       .  S
C1902      F1907   1.383       .  S
C1902      F1908   1.385       .  S
C1909      C1910   1.412       .  A
C1909      C1914   1.398       .  A
C1909      C2501   1.485       .  S
C1910      C1911   1.415       .  A
C1910      H1915   1.083       .  S
C1911      C1912   1.405       .  A
C1911      C2517   1.499       .  S
C1912      C1913   1.400       .  A
C1912      H1916   1.083       .  S
C1913      C1914   1.394       .  A
C1913      C2530   1.472       .  S
C1914      H1917   1.082       .  S
C1918      C1919   1.403       .  A
C1918      C1923   1.407       .  A
C1918      C2135   1.485       .  S
C1919      C1920   1.401       .  A
C1919      H1924   1.084       .  S
C1920      C1921   1.403       .  A
C1920      C2167   1.482       .  S
C1921      C1922   1.408       .  A
C1921      H1925   1.084       .  S
C1922      C1923   1.411       .  A
C1922      C2148   1.496       .  S
C1923      H1926   1.084       .  S
C1927      C1928   1.403       .  A
C1927      C1932   1.406       .  A
C1927      C2116   1.488       .  S
C1928      C1929   1.401       .  A
C1928      H1933   1.082       .  S
C1929      C1930   1.403       .  A
C1929      C2084   1.481       .  S
C1930      C1931   1.403       .  A
C1930      H1934   1.083       .  S
C1931      C1932   1.408       .  A
C1931      C2103   1.488       .  S
C1932      H1935   1.084       .  S
C1936      C1937   1.404       .  A
C1936      C1941   1.399       .  A
C1936      C2068   1.476       .  S
C1937      C1938   1.402       .  A
C1937      H1942   1.085       .  S
C1938      C1939   1.401       .  A
C1938      C2039   1.479       .  S
C1939      C1940   1.399       .  A
C1939      H1943   1.089       .  S
C1940      C1941   1.398       .  A
C1940      C2052   1.473       .  S
C1941      H1944   1.090       .  S
N1945      N1946   1.321       .  A
N1945      N1951   1.313       .  A
N1945     Mn1974   2.198       .  S
N1946      C1953   1.354       .  A
N1947      N1949   1.313       .  A
N1947      N1948   1.322       .  A
N1947     Mn1963   2.206       .  S
N1948      C1954   1.355       .  A
N1949      N1950   1.318       .  A
N1949     Mn1974   2.199       .  S
N1950      C1954   1.356       .  A
N1951      N1952   1.317       .  A
N1951     Mn1963   2.189       .  S
N1952      C1953   1.354       .  A
C1953      C2215   1.490       .  S
C1954      C2087   1.496       .  S
N1955      N1956   1.315       .  A
N1955     Mn1985   2.187       .  S
N1956      C1964   1.349   1_655  A
N1957      N1958   1.320       .  A
N1957      N1959   1.316       .  A
N1958      C1965   1.351       .  A
N1959      N1960   1.323       .  A
N1960      C1965   1.355       .  A
N1961      N1962   1.317       .  A
N1961     Mn1963   2.176       .  S
C1964      C2021   1.440   1_565  S
C1965      C2119   1.480       .  S
N1966      N1967   1.319       .  A
N1966      N1972   1.316       .  A
N1967      C1975   1.350       .  A
N1968      N2287   1.319       .  A
N1968     Mn1986   2.191       .  S
N1969      N2286   1.318   1_554  A
N1969      C1976   1.350       .  A
N1970      N2289   1.316       .  A
N1970     Mn1974   2.185       .  S
N1971      N2288   1.317   1_554  A
N1972      N1973   1.324       .  A
N1973      C1975   1.356       .  A
C1975      C2180   1.480       .  S
C1976      C2009   1.448   1_655  S
N1977      N1978   1.318       .  A
N1977      N1983   1.316       .  A
N1977     Mn1985   2.197       .  S
N1978      C1988   1.351       .  A
N1979      N1980   1.315       .  A
N1979      N1981   1.314       .  A
N1979     Mn1986   2.190       .  S
N1980      C1989   1.349       .  A
N1981      N1982   1.326       .  A
N1981     Mn1985   2.217       .  S
N1982      C1989   1.360       .  A
N1983      N1984   1.325       .  A
N1983     Mn1986   2.225       .  S
N1984      C1988   1.359       .  A
Mn1985    Cl1987   2.549       .  S
Mn1986    Cl1987   2.546       .  S
C1988      C2196   1.495       .  S
C1989      C2100   1.499       .  S
N1990      N1991   1.323       .  A
N1990      N1996   1.315       .  A
N1990     Mn2019   2.217       .  S
N1991      C1998   1.358       .  A
N1992      N1994   1.314       .  A
N1992      N1993   1.323       .  A
N1992     Mn2008   2.210       .  S
N1993      C1999   1.356       .  A
N1994      N1995   1.316       .  A
N1994     Mn2019   2.196       .  S
N1995      C1999   1.354       .  A
N1996      N1997   1.319       .  A
N1996     Mn2008   2.200       .  S
N1997      C1998   1.351       .  A
C1998      C2164   1.498       .  S
C1999      C2036   1.496       .  S
N2000      N2001   1.317       .  A
N2000     Mn2030   2.180       .  S
N2001      C2009   1.348   1_655  A
N2002      N2003   1.318       .  A
N2002      N2004   1.315       .  A
N2003      C2010   1.350       .  A
N2004      N2005   1.318       .  A
N2005      C2010   1.350       .  A
N2006      N2007   1.318       .  A
N2006     Mn2008   2.194       .  S
C2010      C2071   1.461       .  S
N2011      N2012   1.321       .  A
N2011      N2017   1.316       .  A
N2012      C2020   1.352       .  A
N2013      N2014   1.312       .  A
N2013     Mn2031   2.164       .  S
N2014      C2021   1.343   1_665  A
N2015      N2016   1.319       .  A
N2015     Mn2019   2.198       .  S
N2017      N2018   1.322       .  A
N2018      C2020   1.353       .  A
C2020      C2132   1.475       .  S
N2022      N2023   1.318       .  A
N2022      N2028   1.314       .  A
N2022     Mn2030   2.195       .  S
N2023      C2033   1.351       .  A
N2024      N2025   1.316       .  A
N2024      N2026   1.314       .  A
N2024     Mn2031   2.182       .  S
N2025      C2034   1.352       .  A
N2026      N2027   1.318       .  A
N2026     Mn2030   2.190       .  S
N2027      C2034   1.351       .  A
N2028      N2029   1.326       .  A
N2028     Mn2031   2.224       .  S
N2029      C2033   1.360       .  A
Mn2030    Cl2032   2.539   1_665  S
Mn2031    Cl2032   2.541   1_665  S
C2033      C2151   1.496       .  S
C2034      C2055   1.470       .  S
C2035      C2036   1.409       .  A
C2035      C2040   1.402       .  A
C2035      H2042   1.080       .  S
C2036      C2037   1.425       .  A
C2037      C2038   1.411       .  A
C2037      C2044   1.519       .  S
C2038      C2039   1.402       .  A
C2038      H2043   1.082       .  S
C2039      C2040   1.414       .  A
C2040      C2041   1.523       .  S
C2041      F2045   1.384       .  S
C2041      F2046   1.381       .  S
C2041      F2047   1.381       .  S
C2044      F2048   1.383       .  S
C2044      F2049   1.383       .  S
C2044      F2050   1.385       .  S
C2051      C2052   1.403       .  A
C2051      C2056   1.407       .  A
C2051      H2058   1.082       .  S
C2052      C2053   1.417       .  A
C2053      C2054   1.398       .  A
C2053      C2060   1.520       .  S
C2054      C2055   1.400       .  A
C2054      H2059   1.082       .  S
C2055      C2056   1.416       .  A
C2056      C2057   1.518       .  S
C2057      F2061   1.384       .  S
C2057      F2062   1.382       .  S
C2057      F2063   1.384       .  S
C2060      F2064   1.381       .  S
C2060      F2065   1.380       .  S
C2060      F2066   1.385       .  S
C2067      C2068   1.403       .  A
C2067      C2072   1.405       .  A
C2067      H2074   1.082       .  S
C2068      C2069   1.421       .  A
C2069      C2070   1.401       .  A
C2069      C2076   1.520       .  S
C2070      C2071   1.395       .  A
C2070      H2075   1.082       .  S
C2071      C2072   1.412       .  A
C2072      C2073   1.517       .  S
C2073      F2077   1.385       .  S
C2073      F2078   1.383       .  S
C2073      F2079   1.382       .  S
C2076      F2080   1.382       .  S
C2076      F2081   1.385       .  S
C2076      F2082   1.381       .  S
C2083      C2084   1.402       .  A
C2083      C2088   1.412       .  A
C2083      H2090   1.083       .  S
C2084      C2085   1.414       .  A
C2085      C2086   1.403       .  A
C2085      C2092   1.523       .  S
C2086      C2087   1.408       .  A
C2086      H2091   1.080       .  S
C2087      C2088   1.426       .  A
C2088      C2089   1.520       .  S
C2089      F2093   1.385       .  S
C2089      F2094   1.384       .  S
C2089      F2095   1.383       .  S
C2092      F2096   1.381       .  S
C2092      F2097   1.383       .  S
C2092      F2098   1.384       .  S
C2099      C2100   1.411       .  A
C2099      C2104   1.413       .  A
C2099      H2106   1.082       .  S
C2100      C2101   1.428       .  A
C2101      C2102   1.405       .  A
C2101      C2108   1.523       .  S
C2102      C2103   1.399       .  A
C2102      H2107   1.083       .  S
C2103      C2104   1.416       .  A
C2104      C2105   1.519       .  S
C2105      F2109   1.385       .  S
C2105      F2110   1.383       .  S
C2105      F2111   1.381       .  S
C2108      F2112   1.384       .  S
C2108      F2113   1.383       .  S
C2108      F2114   1.385       .  S
C2115      C2116   1.406       .  A
C2115      C2120   1.407       .  A
C2115      H2122   1.083       .  S
C2116      C2117   1.418       .  A
C2117      C2118   1.411       .  A
C2117      C2124   1.519       .  S
C2118      C2119   1.404       .  A
C2118      H2123   1.083       .  S
C2119      C2120   1.415       .  A
C2120      C2121   1.519       .  S
C2121      F2125   1.385       .  S
C2121      F2126   1.383       .  S
C2121      F2127   1.382       .  S
C2124      F2128   1.380       .  S
C2124      F2129   1.383       .  S
C2124      F2130   1.384       .  S
C2131      C2132   1.398       .  A
C2131      C2136   1.406       .  A
C2131      H2138   1.084       .  S
C2132      C2133   1.415       .  A
C2133      C2134   1.412       .  A
C2133      C2140   1.518       .  S
C2134      C2135   1.405       .  A
C2134      H2139   1.083       .  S
C2135      C2136   1.419       .  A
C2136      C2137   1.520       .  S
C2137      F2141   1.384       .  S
C2137      F2142   1.383       .  S
C2137      F2143   1.382       .  S
C2140      F2144   1.383       .  S
C2140      F2145   1.384       .  S
C2140      F2146   1.384       .  S
C2147      C2148   1.405       .  A
C2147      C2152   1.408       .  A
C2147      H2154   1.083       .  S
C2148      C2149   1.421       .  A
C2149      C2150   1.410       .  A
C2149      C2156   1.518       .  S
C2150      C2151   1.407       .  A
C2150      H2155   1.084       .  S
C2151      C2152   1.423       .  A
C2152      C2153   1.520       .  S
C2153      F2157   1.385       .  S
C2153      F2158   1.384       .  S
C2153      F2159   1.382       .  S
C2156      F2160   1.382       .  S
C2156      F2161   1.383       .  S
C2156      F2162   1.384       .  S
C2163      C2164   1.410       .  A
C2163      C2168   1.410       .  A
C2163      H2170   1.083       .  S
C2164      C2165   1.429       .  A
C2165      C2166   1.408       .  A
C2165      C2172   1.522       .  S
C2166      C2167   1.398       .  A
C2166      H2171   1.084       .  S
C2167      C2168   1.411       .  A
C2168      C2169   1.516       .  S
C2169      F2173   1.384       .  S
C2169      F2174   1.382       .  S
C2169      F2175   1.383       .  S
C2172      F2176   1.383       .  S
C2172      F2177   1.383       .  S
C2172      F2178   1.385       .  S
C2179      C2180   1.403       .  A
C2179      C2184   1.411       .  A
C2179      H2186   1.083       .  S
C2180      C2181   1.416       .  A
C2181      C2182   1.406       .  A
C2181      C2188   1.519       .  S
C2182      C2183   1.404       .  A
C2182      H2187   1.083       .  S
C2183      C2184   1.420       .  A
C2183      C2227   1.487       .  S
C2184      C2185   1.520       .  S
C2185      F2189   1.385       .  S
C2185      F2508   1.380       .  S
C2185      F2191   1.383       .  S
C2188      F2192   1.384       .  S
C2188      F2193   1.382       .  S
C2188      F2194   1.385       .  S
F2190      C2503   1.380       .  S
C2195      C2196   1.406       .  A
C2195      C2200   1.409       .  A
C2195      H2202   1.084       .  S
C2196      C2197   1.424       .  A
C2197      C2198   1.408       .  A
C2197      C2204   1.520       .  S
C2198      C2199   1.404       .  A
C2198      H2203   1.083       .  S
C2199      C2200   1.419       .  A
C2199      C2229   1.495       .  S
C2200      C2519   1.517       .  S
C2201      C2518   1.519   1_554  S
C2201      F2523   1.383       .  S
C2201      F2524   1.384       .  S
C2201      F2207   1.382       .  S
C2204      F2208   1.384       .  S
C2204      F2209   1.382       .  S
C2204      F2210   1.385       .  S
F2205      C2519   1.382       .  S
F2206      C2519   1.385       .  S
C2211      C2530   1.400       .  A
C2211      C2534   1.408       .  A
C2211      H2218   1.084   1_556  S
C2212      C2529   1.402       .  A
C2212      C2213   1.412       .  A
C2212      C2231   1.476       .  S
C2213      C2214   1.400       .  A
C2213      C2220   1.522       .  S
C2214      C2215   1.407       .  A
C2214      H2219   1.082       .  S
C2215      C2216   1.425       .  A
C2216      C2529   1.411       .  A
C2216      C2535   1.520       .  S
C2217      C2534   1.520   1_554  S
C2217      F2221   1.385       .  S
C2217      F2222   1.383       .  S
C2217      F2223   1.383       .  S
C2220      F2224   1.382       .  S
C2220      F2225   1.383       .  S
C2220      F2226   1.384       .  S
C2227      C2228   1.410       .  A
C2227      C2232   1.400       .  A
C2228      C2229   1.411       .  A
C2228      H2233   1.083       .  S
C2229      C2230   1.406       .  A
C2230      C2231   1.402       .  A
C2230      H2234   1.083       .  S
C2231      C2232   1.398       .  A
C2232      H2235   1.083       .  S
C2236      C2237   1.402       .  A
C2236      C2241   1.405       .  A
C2236      C2453   1.481       .  S
C2237      C2238   1.400       .  A
C2237      H2242   1.084       .  S
C2238      C2239   1.402       .  A
C2238      C2485   1.479       .  S
C2239      C2240   1.407       .  A
C2239      H2243   1.084       .  S
C2240      C2241   1.407       .  A
C2240      C2466   1.489       .  S
C2241      H2244   1.084       .  S
C2245      C2246   1.405       .  A
C2245      C2250   1.403       .  A
C2245      C2434   1.482       .  S
C2246      C2247   1.403       .  A
C2246      H2251   1.084       .  S
C2247      C2248   1.405       .  A
C2247      C2402   1.481       .  S
C2248      C2249   1.403       .  A
C2248      H2252   1.083       .  S
C2249      C2250   1.402       .  A
C2249      C2421   1.485       .  S
C2250      H2253   1.085       .  S
C2254      C2255   1.405       .  A
C2254      C2259   1.401       .  A
C2254      C2386   1.480       .  S
C2255      C2256   1.402       .  A
C2255      H2260   1.084       .  S
C2256      C2257   1.402       .  A
C2256      C2357   1.481       .  S
C2257      C2258   1.401       .  A
C2257      H2261   1.088       .  S
C2258      C2259   1.399       .  A
C2258      C2370   1.478       .  S
C2259      H2262   1.090       .  S
N2263      N2264   1.321       .  A
N2263      N2269   1.313       .  A
N2263     Mn2292   2.204       .  S
N2264      C2271   1.355       .  A
N2265      N2267   1.313       .  A
N2265      N2266   1.325       .  A
N2265     Mn2281   2.221       .  S
N2266      C2272   1.359       .  A
N2267      N2268   1.315       .  A
N2267     Mn2292   2.181       .  S
N2268      C2272   1.352       .  A
N2269      N2270   1.315       .  A
N2269     Mn2281   2.184       .  S
N2270      C2271   1.352       .  A
C2271      C2533   1.490       .  S
C2272      C2405   1.497       .  S
N2273      N2274   1.317       .  A
N2273     Mn2303   2.188       .  S
N2274      C2282   1.349       .  A
N2275      N2276   1.319       .  A
N2275      N2277   1.316       .  A
N2276      C2283   1.351       .  A
N2277      N2278   1.321       .  A
N2278      C2283   1.353       .  A
N2279      N2280   1.317       .  A
N2279     Mn2281   2.172       .  S
C2282      C2339   1.454       .  S
C2283      C2437   1.473       .  S
N2284      N2285   1.318       .  A
N2284      N2290   1.316       .  A
N2285      C2293   1.349       .  A
N2286     Mn2304   2.189       .  S
N2287      C2294   1.350       .  A
N2288     Mn2292   2.182       .  S
N2290      N2291   1.322       .  A
N2291      C2293   1.354       .  A
C2293      C2498   1.475       .  S
C2294      C2327   1.453       .  S
N2295      N2296   1.318       .  A
N2295      N2301   1.315       .  A
N2295     Mn2303   2.198       .  S
N2296      C2306   1.351       .  A
N2297      N2298   1.316       .  A
N2297      N2299   1.314       .  A
N2297     Mn2304   2.188       .  S
N2298      C2307   1.350       .  A
N2299      N2300   1.322       .  A
N2299     Mn2303   2.213       .  S
N2300      C2307   1.359       .  A
N2301      N2302   1.326       .  A
N2301     Mn2304   2.229       .  S
N2302      C2306   1.360       .  A
Mn2303    Cl2305   2.543       .  S
Mn2304    Cl2305   2.553       .  S
C2306      C2514   1.496       .  S
C2307      C2418   1.495       .  S
N2308      N2309   1.324       .  A
N2308      N2314   1.314       .  A
N2308     Mn2337   2.218       .  S
N2309      C2316   1.358       .  A
N2310      N2312   1.313       .  A
N2310      N2311   1.322       .  A
N2310     Mn2326   2.208       .  S
N2311      C2317   1.356       .  A
N2312      N2313   1.316       .  A
N2312     Mn2337   2.187       .  S
N2313      C2317   1.353       .  A
N2314      N2315   1.318       .  A
N2314     Mn2326   2.189       .  S
N2315      C2316   1.350       .  A
C2316      C2482   1.491       .  S
C2317      C2354   1.494       .  S
N2318      N2319   1.320       .  A
N2318     Mn2348   2.195       .  S
N2319      C2327   1.351       .  A
N2320      N2321   1.319       .  A
N2320      N2322   1.316       .  A
N2321      C2328   1.351       .  A
N2322      N2323   1.319       .  A
N2323      C2328   1.350       .  A
N2324      N2325   1.316       .  A
N2324     Mn2326   2.180       .  S
C2328      C2389   1.464       .  S
N2329      N2330   1.319       .  A
N2329      N2335   1.316       .  A
N2330      C2338   1.350       .  A
N2331      N2332   1.318       .  A
N2331     Mn2349   2.189       .  S
N2332      C2339   1.349       .  A
N2333      N2334   1.318       .  A
N2333     Mn2337   2.189       .  S
N2335      N2336   1.323       .  A
N2336      C2338   1.354       .  A
C2338      C2450   1.475       .  S
N2340      N2341   1.319       .  A
N2340      N2346   1.314       .  A
N2340     Mn2348   2.203       .  S
N2341      C2351   1.353       .  A
N2342      N2343   1.318       .  A
N2342      N2344   1.314       .  A
N2342     Mn2349   2.195       .  S
N2343      C2352   1.353       .  A
N2344      N2345   1.320       .  A
N2344     Mn2348   2.197       .  S
N2345      C2352   1.353       .  A
N2346      N2347   1.322       .  A
N2346     Mn2349   2.206       .  S
N2347      C2351   1.356       .  A
Mn2348    Cl2350   2.546       .  S
Mn2349    Cl2350   2.547       .  S
C2351      C2469   1.489       .  S
C2352      C2373   1.477       .  S
C2353      C2354   1.408       .  A
C2353      C2358   1.402       .  A
C2353      H2360   1.081       .  S
C2354      C2355   1.424       .  A
C2355      C2356   1.411       .  A
C2355      C2362   1.519       .  S
C2356      C2357   1.403       .  A
C2356      H2361   1.081       .  S
C2357      C2358   1.415       .  A
C2358      C2359   1.523       .  S
C2359      F2363   1.385       .  S
C2359      F2364   1.381       .  S
C2359      F2365   1.382       .  S
C2362      F2366   1.384       .  S
C2362      F2367   1.383       .  S
C2362      F2368   1.385       .  S
C2369      C2370   1.404       .  A
C2369      C2374   1.410       .  A
C2369      H2376   1.082       .  S
C2370      C2371   1.418       .  A
C2371      C2372   1.401       .  A
C2371      C2378   1.520       .  S
C2372      C2373   1.401       .  A
C2372      H2377   1.082       .  S
C2373      C2374   1.417       .  A
C2374      C2375   1.518       .  S
C2375      F2379   1.385       .  S
C2375      F2380   1.382       .  S
C2375      F2381   1.384       .  S
C2378      F2382   1.381       .  S
C2378      F2383   1.381       .  S
C2378      F2384   1.385       .  S
C2385      C2386   1.405       .  A
C2385      C2390   1.407       .  A
C2385      H2392   1.081       .  S
C2386      C2387   1.421       .  A
C2387      C2388   1.401       .  A
C2387      C2394   1.520       .  S
C2388      C2389   1.396       .  A
C2388      H2393   1.081       .  S
C2389      C2390   1.412       .  A
C2390      C2391   1.517       .  S
C2391      F2395   1.385       .  S
C2391      F2396   1.383       .  S
C2391      F2397   1.383       .  S
C2394      F2398   1.382       .  S
C2394      F2399   1.385       .  S
C2394      F2400   1.380       .  S
C2401      C2402   1.404       .  A
C2401      C2406   1.414       .  A
C2401      H2408   1.082       .  S
C2402      C2403   1.412       .  A
C2403      C2404   1.402       .  A
C2403      C2410   1.522       .  S
C2404      C2405   1.410       .  A
C2404      H2409   1.080       .  S
C2405      C2406   1.424       .  A
C2406      C2407   1.518       .  S
C2407      F2411   1.385       .  S
C2407      F2412   1.384       .  S
C2407      F2413   1.382       .  S
C2410      F2414   1.382       .  S
C2410      F2415   1.383       .  S
C2410      F2416   1.384       .  S
C2417      C2418   1.409       .  A
C2417      C2422   1.408       .  A
C2417      H2424   1.081       .  S
C2418      C2419   1.428       .  A
C2419      C2420   1.407       .  A
C2419      C2426   1.523       .  S
C2420      C2421   1.402       .  A
C2420      H2425   1.083       .  S
C2421      C2422   1.413       .  A
C2422      C2423   1.518       .  S
C2423      F2427   1.385       .  S
C2423      F2428   1.383       .  S
C2423      F2429   1.381       .  S
C2426      F2430   1.384       .  S
C2426      F2431   1.383       .  S
C2426      F2432   1.385       .  S
C2433      C2434   1.407       .  A
C2433      C2438   1.404       .  A
C2433      H2440   1.083       .  S
C2434      C2435   1.419       .  A
C2435      C2436   1.407       .  A
C2435      C2442   1.519       .  S
C2436      C2437   1.402       .  A
C2436      H2441   1.084       .  S
C2437      C2438   1.413       .  A
C2438      C2439   1.520       .  S
C2439      F2443   1.384       .  S
C2439      F2444   1.384       .  S
C2439      F2445   1.383       .  S
C2442      F2446   1.383       .  S
C2442      F2447   1.381       .  S
C2442      F2448   1.384       .  S
C2449      C2450   1.400       .  A
C2449      C2454   1.405       .  A
C2449      H2456   1.084       .  S
C2450      C2451   1.416       .  A
C2451      C2452   1.410       .  A
C2451      C2458   1.517       .  S
C2452      C2453   1.403       .  A
C2452      H2457   1.084       .  S
C2453      C2454   1.417       .  A
C2454      C2455   1.519       .  S
C2455      F2459   1.384       .  S
C2455      F2460   1.380       .  S
C2455      F2461   1.383       .  S
C2458      F2462   1.384       .  S
C2458      F2463   1.383       .  S
C2458      F2464   1.384       .  S
C2465      C2466   1.405       .  A
C2465      C2470   1.407       .  A
C2465      H2472   1.081       .  S
C2466      C2467   1.418       .  A
C2467      C2468   1.406       .  A
C2467      C2474   1.517       .  S
C2468      C2469   1.406       .  A
C2468      H2473   1.084       .  S
C2469      C2470   1.420       .  A
C2470      C2471   1.520       .  S
C2471      F2475   1.385       .  S
C2471      F2476   1.384       .  S
C2471      F2477   1.382       .  S
C2474      F2478   1.382       .  S
C2474      F2479   1.383       .  S
C2474      F2480   1.384       .  S
C2481      C2482   1.407       .  A
C2481      C2486   1.409       .  A
C2481      H2488   1.082       .  S
C2482      C2483   1.427       .  A
C2483      C2484   1.407       .  A
C2483      C2490   1.522       .  S
C2484      C2485   1.398       .  A
C2484      H2489   1.083       .  S
C2485      C2486   1.411       .  A
C2486      C2487   1.516       .  S
C2487      F2491   1.384       .  S
C2487      F2492   1.383       .  S
C2487      F2493   1.383       .  S
C2490      F2494   1.383       .  S
C2490      F2495   1.383       .  S
C2490      F2496   1.385       .  S
C2497      C2498   1.401       .  A
C2497      C2502   1.408       .  A
C2497      H2504   1.083   1_556  S
C2498      C2499   1.415       .  A
C2499      C2500   1.405       .  A
C2499      C2506   1.519       .  S
C2500      C2501   1.404       .  A
C2500      H2505   1.083       .  S
C2501      C2502   1.422       .  A
C2502      C2503   1.522   1_556  S
C2503      F2507   1.385       .  S
C2503      F2509   1.382       .  S
C2506      F2510   1.384       .  S
C2506      F2511   1.380       .  S
C2506      F2512   1.384       .  S
C2513      C2514   1.405       .  A
C2513      C2518   1.411       .  A
C2513      H2520   1.084       .  S
C2514      C2515   1.423       .  A
C2515      C2516   1.409       .  A
C2515      C2522   1.520       .  S
C2516      C2517   1.405       .  A
C2516      H2521   1.083       .  S
C2517      C2518   1.424       .  A
C2519      F2525   1.383       .  S
C2522      F2526   1.384       .  S
C2522      F2527   1.382       .  S
C2522      F2528   1.385       .  S
C2529      H2536   1.083       .  S
C2530      C2531   1.412       .  A
C2531      C2532   1.400       .  A
C2531      C2538   1.523       .  S
C2532      C2533   1.409       .  A
C2532      H2537   1.082       .  S
C2533      C2534   1.424       .  A
C2535      F2539   1.385       .  S
C2535      F2540   1.384       .  S
C2535      F2541   1.383       .  S
C2538      F2542   1.382       .  S
C2538      F2543   1.383       .  S
C2538      F2544   1.384       .  S
