geometry optimzed in LAMMPS
_audit_creation_date              2020-12-01 
_audit_creation_method            'lammps2cif' 
_symmetry_space_group_name_H-M    'P1' 
_symmetry_Int_Tables_number       1 
_symmetry_cell_setting            triclinic 
loop_ 
_symmetry_equiv_pos_as_xyz 
  x,y,z 
_cell_length_a                    38.49154474 
_cell_length_b                    39.063372521575445 
_cell_length_c                    36.17320526803345 
_cell_angle_alpha                 89.40339047962954 
_cell_angle_beta                  90.28865191244735 
_cell_angle_gamma                 89.97086156724706 
loop_ 
_atom_site_label 
_atom_site_type_symbol 
_atom_site_fract_x 
_atom_site_fract_y 
_atom_site_fract_z 
_atom_site_charge 
C1          C  0.26689128  0.20662799  0.86748998     0.04000
C2          C  0.24060601  0.22493838  0.88557904    -0.12100
C3          C  0.21560512  0.24314305  0.86470856     0.01500
C4          C  0.21720258  0.24283738  0.82585072    -0.10600
C5          C  0.24320260  0.22460630  0.80765869     0.04000
C6          C  0.26793929  0.20666488  0.82872355    -0.10100
H7          H  0.23994572  0.22545368  0.91550030     0.09600
H8          H  0.19846510  0.25734902  0.80963342     0.07200
H9          H  0.28860263  0.19302524  0.81497987     0.07000
Zn10       Zn  0.04097894  0.01467990  0.98175291     1.49700
Zn11       Zn  0.45557765  0.98625663  0.97970980     1.49400
Zn12       Zn  0.50643125  0.02239086  0.92176087     1.49100
Zn13       Zn  0.49254988  0.48398539  0.91816413     1.49500
O14         O  0.49779168  0.98050547  0.95032793    -1.83200
O15         O  0.02517501  0.01290386  0.03521452    -0.73800
O16         O  0.43012714  0.03042999  0.96726862    -0.73700
O17         O  0.05516763  0.08822890  0.93395321    -0.73200
O18         O  0.46715932  0.98476496  0.03412780    -0.73900
O19         O  0.07616446  0.05320596  0.97754057    -0.73500
O20         O  0.46604928  0.05480607  0.92692386    -0.74000
O21         O  0.49332709  0.49734944  0.86460506    -0.73400
O22         O  0.42431133  0.49357351  0.97264345    -0.74200
O23         O  0.50964218  0.01230361  0.86720117    -0.73600
O24         O  0.44723556  0.46007841  0.92994621    -0.74000
O25         O  0.03112937  0.40925926  0.92201005    -0.74000
O26         O  0.06417219  0.42853012  0.96792151    -0.73700
C27         C  0.49381336  0.97453378  0.05212966     0.78000
C28         C  0.43782369  0.05480845  0.94516979     0.78500
C29         C  0.07827622  0.08050816  0.95802949     0.77500
C30         C  0.50091033  0.98642694  0.84809971     0.77900
C31         C  0.42313309  0.46694666  0.95267977     0.79000
C32         C  0.05778702  0.40673813  0.94279606     0.78100
C33         C  0.24062192  0.24319594  0.02959403     0.04000
C34         C  0.25500452  0.27137831  0.01044386    -0.12100
C35         C  0.27257926  0.29719277  0.02998941     0.01500
C36         C  0.27585586  0.29446336  0.06866270    -0.10600
C37         C  0.26165860  0.26651269  0.08787989     0.04000
C38         C  0.24424611  0.24102181  0.06816338    -0.10100
H39         H  0.25239468  0.27330866  0.98064960     0.09600
H40         H  0.28930755  0.31425309  0.08384968     0.07200
H41         H  0.23293278  0.21956766  0.08305894     0.07000
C42         C  0.01273115  0.44914221  0.36985808     0.04000
C43         C  0.01110388  0.44742783  0.33112531    -0.12100
C44         C  0.98797367  0.00751634  0.30906537     0.01500
C45         C  0.47812111  0.99995200  0.32846528    -0.10600
C46         C  0.47928243  0.00219181  0.36717577     0.04000
C47         C  0.99695637  0.47682299  0.38789476    -0.10100
H48         H  0.02365580  0.42648298  0.31707348     0.09600
H49         H  0.46489229  0.01961939  0.31237703     0.07200
H50         H  0.98552497  0.00479754  0.41689589     0.07000
Zn51       Zn  0.25492455  0.28126816  0.47941139     1.49700
Zn52       Zn  0.27093628  0.20115109  0.47906947     1.49400
Zn53       Zn  0.22294571  0.23433595  0.41601942     1.49100
Zn54       Zn  0.30481181  0.24995602  0.41761142     1.49500
O55         O  0.26341483  0.24175531  0.44793518    -1.83200
O56         O  0.25164382  0.26648843  0.53300588    -0.73800
O57         O  0.23102256  0.16848511  0.47340545    -0.73700
O58         O  0.18812178  0.27222037  0.42259502    -0.73200
O59         O  0.27214206  0.21317927  0.53323866    -0.73900
O60         O  0.21059925  0.30660380  0.46506338    -0.73500
O61         O  0.19804937  0.18973173  0.42805181    -0.74000
O62         O  0.29143528  0.25524054  0.36357719    -0.73400
O63         O  0.31426082  0.17534146  0.46446326    -0.74200
O64         O  0.23691412  0.23614485  0.36228092    -0.73600
O65         O  0.33678355  0.20884370  0.42063518    -0.74000
O66         O  0.33132035  0.29231459  0.43441488    -0.74000
O67         O  0.29527881  0.31394332  0.47605250    -0.73700
C68         C  0.26113203  0.23940846  0.55023168     0.78000
C69         C  0.20441253  0.16683885  0.45250968     0.78500
C70         C  0.18660441  0.29906733  0.44215090     0.77500
C71         C  0.26410958  0.24683972  0.34581960     0.77900
C72         C  0.33721705  0.18140913  0.44003962     0.79000
C73         C  0.32360224  0.31511507  0.45798066     0.78100
C74         C  0.48775375  0.47559498  0.53286687     0.04000
C75         C  0.48585448  0.47987745  0.57134081    -0.12100
C76         C  0.01068758  0.99932268  0.59031665     0.01500
C77         C  0.03741796  0.01493820  0.57034895    -0.10600
C78         C  0.03990395  0.01093503  0.53189056     0.04000
C79         C  0.99682207  0.50993323  0.51228305    -0.10100
H80         H  0.46492457  0.46790986  0.58664694     0.09600
H81         H  0.05645424  0.03028448  0.58486395     0.07200
H82         H  0.01659294  0.98840520  0.48342038     0.07000
C83         C  0.09405839  0.06354726  0.47821549     0.30700
C84         C  0.10152297  0.09037284  0.45322534    -0.35700
C85         C  0.13438528  0.10573562  0.45706164     0.16700
C86         C  0.15823683  0.09510677  0.48341513     0.22500
C87         C  0.15102031  0.06809888  0.50789037    -0.33800
C88         C  0.11822109  0.05307334  0.50430848     0.16600
O89         O  0.06366801  0.04831250  0.48270232    -0.25800
C90         C  0.06858949  0.02803487  0.51211772     0.06400
C91         C  0.10214086  0.02978785  0.52636411    -0.30700
O92         O  0.18611586  0.11454988  0.48430413    -0.22500
C93         C  0.18034934  0.13803769  0.45814699    -0.02500
C94         C  0.14857618  0.13382529  0.44010197    -0.16900
H95         H  0.08244013  0.09975450  0.43351210     0.21100
H96         H  0.16907140  0.06049404  0.52950514     0.19400
H97         H  0.11238295  0.01755757  0.55110860     0.19400
H98         H  0.13699109  0.14999780  0.41891601     0.15200
C99         C  0.39264484  0.37392484  0.46527663     0.30700
C100        C  0.42588712  0.38784654  0.45888785    -0.35700
C101        C  0.43565974  0.41531229  0.48161637     0.16700
C102        C  0.41419451  0.42785744  0.50876437     0.22500
C103        C  0.38097477  0.41442090  0.51468421    -0.33800
C104        C  0.37124641  0.38723390  0.49204078     0.16600
O105        O  0.37872506  0.34698306  0.44895609    -0.25800
C106        C  0.34802177  0.34332103  0.46550253     0.06400
C107        C  0.34207485  0.36775938  0.49238681    -0.30700
O108        O  0.42929467  0.45134723  0.52903066    -0.22500
C109        C  0.46088093  0.45447801  0.51468259    -0.02500
C110        C  0.46628876  0.43286880  0.48476241    -0.16900
H111        H  0.44327154  0.37737126  0.43847522     0.21100
H112        H  0.36429310  0.42377470  0.53636599     0.19400
H113        H  0.31989041  0.37011559  0.51046726     0.19400
H114        H  0.48995949  0.42903090  0.46931241     0.15200
C115        C  0.07403544  0.40155535  0.42091281     0.30700
C116        C  0.10434245  0.39709116  0.44237465    -0.35700
C117        C  0.12133318  0.36537351  0.43899163     0.16700
C118        C  0.10912137  0.33985926  0.41623749     0.22500
C119        C  0.07862852  0.34404354  0.39545043    -0.33800
C120        C  0.06185554  0.37564819  0.39868292     0.16600
O121        O  0.05654204  0.43043200  0.41599695    -0.25800
C122        C  0.03297232  0.42278952  0.39024878     0.06400
C123        C  0.03486388  0.38887489  0.37900287    -0.30700
O124        O  0.13013558  0.31331520  0.41497730    -0.22500
C125        C  0.15623526  0.32162175  0.43734037    -0.02500
C126        C  0.15216126  0.35372183  0.45324225    -0.16900
H127        H  0.11488719  0.41749088  0.45904294     0.21100
H128        H  0.06952939  0.32459335  0.37663643     0.19400
H129        H  0.02034939  0.37655431  0.35715522     0.19400
H130        H  0.16989488  0.36697864  0.47146190     0.15200
C131        C  0.39083409  0.10884983  0.43425511     0.30700
C132        C  0.40167512  0.07506776  0.44178155    -0.35700
C133        C  0.42726409  0.06188914  0.41825546     0.16700
C134        C  0.44088478  0.08061670  0.38920341     0.22500
C135        C  0.43049581  0.11443299  0.38207751    -0.33800
C136        C  0.40516566  0.12762771  0.40563504     0.16600
O137        O  0.36565282  0.12556491  0.45100214    -0.25800
C138        C  0.36411238  0.15547702  0.43298270     0.06400
C139        C  0.38819822  0.15815900  0.40459146    -0.30700
O140        O  0.46188797  0.06246517  0.36854129    -0.22500
C141        C  0.46230917  0.03173260  0.38471829    -0.02500
C142        C  0.44138067  0.02989749  0.41596834    -0.16900
H143        H  0.39016684  0.05976959  0.46362373     0.21100
H144        H  0.44054916  0.12902677  0.35889427     0.19400
H145        H  0.39159517  0.17897563  0.38495380     0.19400
H146        H  0.43538595  0.00765976  0.43272879     0.15200
C147        C  0.27942986  0.26115067  0.25125856     0.30700
C148        C  0.29775966  0.27220026  0.21980091    -0.35700
C149        C  0.28083715  0.26770058  0.18568375     0.16700
C150        C  0.24836884  0.25296479  0.18280191     0.22500
C151        C  0.22998849  0.24222040  0.21417196    -0.33800
C152        C  0.24671946  0.24697587  0.24818943     0.16600
O153        O  0.29012756  0.26286529  0.28594088    -0.25800
C154        C  0.26381751  0.24973181  0.30522315     0.06400
C155        C  0.23612162  0.23949691  0.28313985    -0.30700
O156        O  0.23763025  0.25053269  0.14831909    -0.22500
C157        C  0.26329092  0.26425390  0.12865182    -0.02500
C158        C  0.29089456  0.27550339  0.15046562    -0.16900
H159        H  0.32334682  0.28352600  0.22178729     0.21100
H160        H  0.20440909  0.23087427  0.21217626     0.19400
H161        H  0.21173979  0.22816358  0.29164333     0.19400
H162        H  0.31501071  0.28715376  0.14162816     0.15200
C163        C  0.35052493  0.41954699  0.98115609     0.30700
C164        C  0.32338145  0.41083012  0.00518357    -0.35700
C165        C  0.31028430  0.37748457  0.00214163     0.16700
C166        C  0.32252451  0.35434313  0.97673304     0.22500
C167        C  0.34926566  0.36331930  0.95214548    -0.33800
C168        C  0.36280652  0.39655399  0.95560888     0.16600
O169        O  0.36919121  0.44782928  0.98235974    -0.25800
C170        C  0.39381175  0.44303122  0.95724510     0.06400
C171        C  0.39098127  0.41164774  0.93953268    -0.30700
O172        O  0.30921448  0.32342276  0.98154949    -0.22500
C173        C  0.28838917  0.32679550  0.01058670    -0.02500
C174        C  0.28788252  0.35997094  0.02426444    -0.16900
H175        H  0.31457153  0.42812704  0.02636085     0.21100
H176        H  0.36018541  0.34500346  0.93319524     0.19400
H177        H  0.40843645  0.40069238  0.91948277     0.19400
H178        H  0.27473474  0.36922050  0.04859015     0.15200
C179        C  0.19593732  0.16895641  0.00344055     0.30700
C180        C  0.18380433  0.13540394  0.00863455    -0.35700
C181        C  0.15459853  0.12614536  0.98770198     0.16700
C182        C  0.13848584  0.14825274  0.96303581     0.22500
C183        C  0.15106127  0.18172846  0.95732536    -0.33800
C184        C  0.18025821  0.19106980  0.97847128     0.16600
O185        O  0.22028862  0.18395341  0.02322283    -0.25800
C186        C  0.22070069  0.21609123  0.01060912     0.06400
C187        C  0.19640018  0.22194920  0.98260495    -0.30700
O188        O  0.10997976  0.13496035  0.94850305    -0.22500
C189        C  0.10785271  0.10395500  0.96411035    -0.02500
C190        C  0.13504525  0.09711378  0.98860119    -0.16900
H191        H  0.19532077  0.11823627  0.02893275     0.21100
H192        H  0.13811644  0.19969896  0.93890065     0.19400
H193        H  0.18950668  0.24608453  0.96973491     0.19400
H194        H  0.13904597  0.07452614  0.00568951     0.15200
C195        C  0.50040118  0.50091734  0.75380234     0.30700
C196        C  0.49251046  0.47961213  0.72403233    -0.35700
C197        C  0.50046860  0.49261181  0.68891166     0.16700
C198        C  0.01556602  0.02422690  0.68342793     0.22500
C199        C  0.02337840  0.04569835  0.71330744    -0.33800
C200        C  0.01511041  0.03277757  0.74857180     0.16600
O201        O  0.49493695  0.49370956  0.78887621    -0.25800
C202        C  0.00615924  0.02127062  0.80657304     0.06400
C203        C  0.01898878  0.04656412  0.78289844    -0.30700
O204        O  0.02118071  0.03088752  0.64811657    -0.22500
C205        C  0.00912753  0.00328677  0.63088532    -0.02500
C206        C  0.49594219  0.47868319  0.65497093    -0.16900
H207        H  0.48085113  0.45464272  0.72799530     0.21100
H208        H  0.03503153  0.07066646  0.70933793     0.19400
H209        H  0.02966780  0.07128898  0.78995949     0.19400
H210        H  0.48518761  0.45383653  0.64855986     0.15200
C211        C  0.00731901  0.46350926  0.14726062     0.30700
C212        C  0.02534095  0.45365010  0.17942631    -0.35700
C213        C  0.00943280  0.46201536  0.21291278     0.16700
C214        C  0.47811282  0.97914657  0.21477232     0.22500
C215        C  0.45993335  0.98872948  0.18259898    -0.33800
C216        C  0.47568896  0.98010114  0.14909479     0.16600
O217        O  0.01778762  0.45906293  0.11300188    -0.25800
C218        C  0.49241261  0.97276192  0.09264741     0.06400
C219        C  0.46550059  0.98614874  0.11356514    -0.30700
O220        O  0.46858666  0.98526804  0.24903578    -0.22500
C221        C  0.49387747  0.97143399  0.26950447    -0.02500
C222        C  0.02001845  0.45664509  0.24838416    -0.16900
H223        H  0.05015034  0.44064600  0.17841875     0.21100
H224        H  0.43540476  0.00223747  0.18360982     0.19200
H225        H  0.44223690  0.99911613  0.10396523     0.19400
H226        H  0.04376263  0.44441977  0.25775049     0.15200
C227        C  0.24032611  0.24365131  0.71241884     0.30700
C228        C  0.23308975  0.26344842  0.68071028    -0.35700
C229        C  0.24504494  0.25023919  0.64717474     0.16700
C230        C  0.26257051  0.21949545  0.64492539     0.22500
C231        C  0.26985161  0.19975111  0.67663019    -0.33800
C232        C  0.25820267  0.21313420  0.71017739     0.16600
O233        O  0.23215778  0.25139649  0.74669479    -0.25800
C234        C  0.24524219  0.22565116  0.76679357     0.06400
C235        C  0.26162455  0.20102442  0.74538030    -0.30700
O236        O  0.27087559  0.21176059  0.61069221    -0.22500
C237        C  0.25872692  0.23800764  0.59075943    -0.02500
C238        C  0.24248012  0.26276514  0.61200501    -0.16900
H239        H  0.21929861  0.28754773  0.68211392     0.21100
H240        H  0.28377299  0.17572165  0.67525905     0.19400
H241        H  0.27427914  0.17759979  0.75431177     0.19400
H242        H  0.23007805  0.28623752  0.60277134     0.15200
C243        C  0.36733732  0.11206268  0.93961142     0.30700
C244        C  0.33330358  0.12412741  0.94556216    -0.35700
C245        C  0.32212711  0.15115649  0.92230308     0.16700
C246        C  0.34309141  0.16494257  0.89511374     0.22500
C247        C  0.37706273  0.15343681  0.88971404    -0.33800
C248        C  0.38817008  0.12674618  0.91287564     0.16600
O249        O  0.38231767  0.08525417  0.95571978    -0.25800
C250        C  0.41311902  0.08315344  0.93911476     0.06400
C251        C  0.41811369  0.10846281  0.91243955    -0.30700
O252        O  0.32673021  0.18718722  0.87388000    -0.22500
C253        C  0.29481959  0.18833982  0.88762005    -0.02500
C254        C  0.29038053  0.16667810  0.91814268    -0.16900
H255        H  0.31630775  0.11237590  0.96577106     0.21100
H256        H  0.39322096  0.16360773  0.86779805     0.19400
H257        H  0.43992154  0.11174547  0.89395235     0.19400
H258        H  0.26666943  0.16123319  0.93305860     0.15200
C259        C  0.10229522  0.33510384  0.91063196     0.30700
C260        C  0.10830805  0.30825072  0.88621366    -0.35700
C261        C  0.14045888  0.29186568  0.88967139     0.16700
C262        C  0.16516526  0.30098705  0.91551465     0.22500
C263        C  0.15890683  0.32766988  0.94050195    -0.33800
C264        C  0.12662924  0.34436504  0.93685253     0.16600
O265        O  0.07497074  0.35529719  0.91013960    -0.25800
C266        C  0.08154846  0.37794451  0.93639845     0.06400
C267        C  0.11330685  0.37239187  0.95419475    -0.30700
O268        O  0.19457345  0.28392741  0.91147825    -0.22500
C269        C  0.18840372  0.26370956  0.88271510    -0.02500
C270        C  0.15506163  0.26751981  0.86830808    -0.16900
H271        H  0.08972176  0.30150765  0.86494949     0.21100
H272        H  0.17833161  0.33572734  0.96031802     0.19400
H273        H  0.12533319  0.38753000  0.97562976     0.19400
H274        H  0.14379341  0.25531652  0.84434360     0.15200
C275        C  0.27032173  0.75136414  0.86529105     0.04000
C276        C  0.24450599  0.76959207  0.88443331    -0.12100
C277        C  0.21716418  0.78553232  0.86458600     0.01500
C278        C  0.21609932  0.78295956  0.82581623    -0.10600
C279        C  0.24143231  0.76467110  0.80678469     0.04000
C280        C  0.26855530  0.74930673  0.82670648    -0.10100
H281        H  0.24576187  0.77147112  0.91427688     0.09600
H282        H  0.19564945  0.79559968  0.81017588     0.07200
H283        H  0.28865060  0.73558342  0.81218662     0.07000
Zn284      Zn  0.03761582  0.47124019  0.98302366     1.49700
Zn285      Zn  0.45920723  0.53200713  0.97841047     1.49400
Zn286      Zn  0.51096197  0.56377041  0.91746793     1.49100
Zn287      Zn  0.49136435  0.94217050  0.91658242     1.49500
O288        O  0.50105934  0.52375453  0.94907138    -1.83200
O289        O  0.02185708  0.46615181  0.03595515    -0.73800
O290        O  0.43521456  0.57588907  0.96251706    -0.73700
O291        O  0.04997283  0.54687700  0.93902413    -0.73200
O292        O  0.47108722  0.53322357  0.03272863    -0.73900
O293        O  0.07067316  0.51141210  0.98232450    -0.73500
O294        O  0.47071342  0.59695496  0.91955002    -0.74000
O295        O  0.49130587  0.95841453  0.86323442    -0.73400
O296        O  0.42240490  0.94729419  0.97058380    -0.74200
O297        O  0.51502514  0.55016748  0.86352925    -0.73600
O298        O  0.44732503  0.91552949  0.92748652    -0.74000
O299        O  0.03093633  0.94966459  0.92450202    -0.74000
O300        O  0.06558412  0.97024046  0.96832717    -0.73700
C301        C  0.49746767  0.52276027  0.05104382     0.78000
C302        C  0.44274310  0.59845911  0.93819810     0.78500
C303        C  0.07236132  0.53931763  0.96385856     0.77500
C304        C  0.50479888  0.52329479  0.84698218     0.77900
C305        C  0.42261730  0.92111021  0.94992432     0.79000
C306        C  0.05812709  0.94751095  0.94450893     0.78100
C307        C  0.23040113  0.70719248  0.03519501     0.04000
C308        C  0.24749947  0.73181924  0.01313742    -0.12100
C309        C  0.26638221  0.75832456  0.02982656     0.01500
C310        C  0.26809916  0.76009252  0.06851192    -0.10600
C311        C  0.25102578  0.73588029  0.09065340     0.04000
C312        C  0.23233345  0.70952054  0.07386031    -0.10100
H313        H  0.24571507  0.73074181  0.98334252     0.09600
H314        H  0.28235250  0.78076583  0.08134666     0.07200
H315        H  0.21889240  0.69092823  0.09103753     0.07000
C316        C  0.00289004  0.97929894  0.36755164     0.04000
C317        C  0.00374294  0.98056736  0.32873591    -0.12100
C318        C  0.99424842  0.47284787  0.31023738     0.01500
C319        C  0.47077631  0.53312001  0.32852730    -0.10600
C320        C  0.46955229  0.53234979  0.36733904     0.04000
C321        C  0.98587071  0.00539107  0.38694239    -0.10100
H322        H  0.01715129  0.96065118  0.31384796     0.09600
H323        H  0.45843297  0.55394415  0.31338037     0.07200
H324        H  0.99877493  0.47885803  0.41765947     0.07000
Zn325      Zn  0.23558190  0.80295591  0.47740941     1.49700
Zn326      Zn  0.25264990  0.72244130  0.48024572     1.49400
Zn327      Zn  0.20321100  0.75345556  0.41752868     1.49100
Zn328      Zn  0.28535023  0.77045673  0.41744086     1.49500
O329        O  0.24426470  0.76229730  0.44806208    -1.83200
O330        O  0.23276455  0.79012793  0.53110619    -0.73800
O331        O  0.21330700  0.68843171  0.47645582    -0.73700
O332        O  0.16820852  0.79189663  0.42086058    -0.73200
O333        O  0.25400905  0.73703415  0.53336733    -0.73900
O334        O  0.19103010  0.82674437  0.46260884    -0.73500
O335        O  0.17856428  0.70983436  0.43276436    -0.74000
O336        O  0.27194601  0.76938529  0.36347068    -0.73400
O337        O  0.29683309  0.69721587  0.46690466    -0.74200
O338        O  0.21745236  0.75003000  0.36445975    -0.73600
O339        O  0.31930268  0.73149245  0.42381293    -0.74000
O340        O  0.31005643  0.81523066  0.43008385    -0.74000
O341        O  0.27472538  0.83692760  0.47224761    -0.73700
C342        C  0.24283766  0.76380442  0.54922157     0.78000
C343        C  0.18584087  0.68687137  0.45681040     0.78500
C344        C  0.16700018  0.81912113  0.43984734     0.77500
C345        C  0.24483112  0.75852211  0.34699303     0.77900
C346        C  0.32031345  0.70417618  0.44333742     0.79000
C347        C  0.30229030  0.83860466  0.45297788     0.78100
C348        C  0.47060455  0.99096126  0.53028765     0.04000
C349        C  0.47129210  0.98750201  0.56895013    -0.12100
C350        C  0.99783867  0.50253990  0.58983919     0.01500
C351        C  0.02362135  0.52153367  0.57181673    -0.10600
C352        C  0.02353545  0.52522633  0.53309638     0.04000
C353        C  0.01489915  0.99133714  0.51310845    -0.10100
H354        H  0.45104809  0.97302112  0.58274134     0.09600
H355        H  0.04380511  0.53358807  0.58811213     0.07200
H356        H  0.99639895  0.51276577  0.48245076     0.07000
C357        C  0.07524759  0.58393033  0.48355743     0.30700
C358        C  0.08186938  0.61208829  0.46008484    -0.35700
C359        C  0.11511911  0.62676956  0.46302835     0.16700
C360        C  0.14013278  0.61442691  0.48720630     0.22500
C361        C  0.13368843  0.58610852  0.51023045    -0.33800
C362        C  0.10047032  0.57169606  0.50752544     0.16600
O363        O  0.04513152  0.56812258  0.48789934    -0.25800
C364        C  0.05120832  0.54567744  0.51518074     0.06400
C365        C  0.08530067  0.54667806  0.52813672    -0.30700
O366        O  0.16846806  0.63334686  0.48743359    -0.22500
C367        C  0.16172606  0.65816558  0.46299516    -0.02500
C368        C  0.12894895  0.65532385  0.44678340    -0.16900
H369        H  0.06207432  0.62265494  0.44192577     0.21100
H370        H  0.15276644  0.57685300  0.53002403     0.19400
H371        H  0.09680227  0.53216664  0.55073132     0.19400
H372        H  0.11659449  0.67260117  0.42716397     0.15200
C373        C  0.37079134  0.89822967  0.45745342     0.30700
C374        C  0.40469718  0.91070396  0.45184641    -0.35700
C375        C  0.41522157  0.93773910  0.47473630     0.16700
C376        C  0.39373534  0.95155492  0.50113978     0.22500
C377        C  0.35969961  0.93972520  0.50607729    -0.33800
C378        C  0.34931995  0.91266393  0.48346302     0.16600
O379        O  0.35681231  0.87083631  0.44211387    -0.25800
C380        C  0.32598341  0.86787331  0.45850375     0.06400
C381        C  0.31995715  0.89337189  0.48425946    -0.30700
O382        O  0.40997132  0.97338904  0.52266068    -0.22500
C383        C  0.44225143  0.97412991  0.50972584    -0.02500
C384        C  0.44705717  0.95251104  0.47979045    -0.16900
H385        H  0.42227897  0.89892006  0.43248790     0.21100
H386        H  0.34314282  0.94958630  0.52760009     0.19400
H387        H  0.29792716  0.89611156  0.50248359     0.19400
H388        H  0.47113185  0.94622590  0.46614270     0.15200
C389        C  0.06029210  0.92700794  0.41817630     0.30700
C390        C  0.08965683  0.92036284  0.44034123    -0.35700
C391        C  0.10468758  0.88778480  0.43672060     0.16700
C392        C  0.09152292  0.86332052  0.41320679     0.22500
C393        C  0.06185189  0.86972024  0.39162939    -0.33800
C394        C  0.04710019  0.90233795  0.39493904     0.16600
O395        O  0.04477915  0.95695939  0.41361034    -0.25800
C396        C  0.02146289  0.95133575  0.38703706     0.06400
C397        C  0.02160516  0.91771686  0.37471008    -0.30700
O398        O  0.11119640  0.83572549  0.41182143    -0.22500
C399        C  0.13732047  0.84248022  0.43481451    -0.02500
C400        C  0.13455846  0.87443945  0.45125103    -0.16900
H401        H  0.10106766  0.93982421  0.45767921     0.21100
H402        H  0.05204617  0.85120013  0.37212983     0.19400
H403        H  0.00687462  0.90692109  0.35208440     0.19400
H404        H  0.15271001  0.88662364  0.46989251     0.15200
C405        C  0.37693032  0.63378753  0.43757783     0.30700
C406        C  0.38882743  0.60015276  0.44417293    -0.35700
C407        C  0.41514885  0.58845440  0.42055600     0.16700
C408        C  0.42844273  0.60850130  0.39235147     0.22500
C409        C  0.41704895  0.64210746  0.38621239    -0.33800
C410        C  0.39104648  0.65377581  0.40980192     0.16600
O411        O  0.35079033  0.64919088  0.45422123    -0.25800
C412        C  0.34850986  0.67945470  0.43695400     0.06400
C413        C  0.37303131  0.68365134  0.40922333    -0.30700
O414        O  0.45018391  0.59175066  0.37126623    -0.22500
C415        C  0.45143635  0.56052459  0.38617123    -0.02500
C416        C  0.43038150  0.55697572  0.41724254    -0.16900
H417        H  0.37750053  0.58386619  0.46527782     0.21100
H418        H  0.42683477  0.65764355  0.36360971     0.19400
H419        H  0.37593419  0.70493797  0.39008346     0.19400
H420        H  0.42517258  0.53400607  0.43326320     0.15200
C421        C  0.26322877  0.75577139  0.25247096     0.30700
C422        C  0.28317693  0.76011410  0.22044664    -0.35700
C423        C  0.26723446  0.75031392  0.18728989     0.16700
C424        C  0.23415185  0.73676050  0.18579093     0.22500
C425        C  0.21418439  0.73247813  0.21778427    -0.33800
C426        C  0.22997653  0.74260574  0.25086777     0.16600
O427        O  0.27286558  0.76337367  0.28641519    -0.25800
C428        C  0.24534366  0.75510980  0.30671062     0.06400
C429        C  0.21789380  0.74207589  0.28608434    -0.30700
O430        O  0.22434739  0.72942088  0.15185926    -0.22500
C431        C  0.25134233  0.73873170  0.13125738    -0.02500
C432        C  0.27880994  0.75188725  0.15186248    -0.16900
H433        H  0.30917528  0.77062739  0.22128871     0.21100
H434        H  0.18809903  0.72217467  0.21690960     0.19400
H435        H  0.19283191  0.73325455  0.29571635     0.19400
H436        H  0.30366790  0.76118488  0.14217250     0.15200
C437        C  0.34843588  0.87453365  0.97393994     0.30700
C438        C  0.31833350  0.86821621  0.99440273    -0.35700
C439        C  0.30634744  0.83442724  0.99465014     0.16700
C440        C  0.32254293  0.80842006  0.97575555     0.22500
C441        C  0.35242591  0.81490644  0.95454410    -0.33800
C442        C  0.36467696  0.84885625  0.95455860     0.16600
O443        O  0.36601713  0.90341989  0.97353883    -0.25800
C444        C  0.39387928  0.89650309  0.95341307     0.06400
C445        C  0.39438387  0.86297424  0.94057997    -0.30700
O446        O  0.30909325  0.77804792  0.98355419    -0.22500
C447        C  0.28407879  0.78492333  0.00771581    -0.02500
C448        C  0.28115770  0.81956751  0.01537769    -0.16900
H449        H  0.30625073  0.88790334  0.01080476     0.21100
H450        H  0.36622469  0.79459094  0.94074115     0.19400
H451        H  0.41474377  0.85029566  0.92537550     0.19400
H452        H  0.26460445  0.83165754  0.03553382     0.15200
C453        C  0.18253081  0.63292215  0.01678801     0.30700
C454        C  0.16803984  0.60095161  0.02544005    -0.35700
C455        C  0.14245253  0.58912177  0.00108622     0.16700
C456        C  0.13160358  0.60752493  0.97036630     0.22500
C457        C  0.14655127  0.63938633  0.96137240    -0.33800
C458        C  0.17243145  0.65116061  0.98567402     0.16600
O459        O  0.20493649  0.64973363  0.03731055    -0.25800
C460        C  0.20977343  0.67908697  0.01906691     0.06400
C461        C  0.19039764  0.68131200  0.98646506    -0.30700
O462        O  0.10582937  0.59234173  0.95268698    -0.22500
C463        C  0.10042040  0.56373448  0.97222261    -0.02500
C464        C  0.12255571  0.56040192  0.00254794    -0.16900
H465        H  0.17550715  0.58672528  0.05006104     0.21100
H466        H  0.13798771  0.65432719  0.93766566     0.19400
H467        H  0.18821927  0.70278219  0.96743764     0.19400
H468        H  0.12308379  0.54028223  0.02335269     0.15200
C469        C  0.49511688  0.97622743  0.75198868     0.30700
C470        C  0.48676247  0.95963430  0.71887244    -0.35700
C471        C  0.49301409  0.97828773  0.68621969     0.16700
C472        C  0.00700233  0.51084605  0.68605590     0.22500
C473        C  0.01524182  0.52747583  0.71915496    -0.33800
C474        C  0.00863782  0.50897986  0.75180459     0.16600
O475        O  0.49084953  0.96382141  0.78572959    -0.25800
C476        C  0.00168225  0.48899612  0.80743491     0.06400
C477        C  0.01298040  0.51772245  0.78786389    -0.30700
O478        O  0.01076994  0.52350973  0.65238398    -0.22500
C479        C  0.99864699  0.49896706  0.63056132    -0.02500
C480        C  0.48723869  0.97019212  0.65018025    -0.16900
H481        H  0.47582729  0.93411800  0.71859889     0.21100
H482        H  0.02581340  0.55314093  0.71943648     0.19400
H483        H  0.02277425  0.54160557  0.79867007     0.19400
H484        H  0.47657231  0.94666404  0.63940686     0.15200
C485        C  0.00882273  0.01019809  0.14646247     0.30700
C486        C  0.02526974  0.99800775  0.17867117    -0.35700
C487        C  0.00800040  0.00433974  0.21192602     0.16700
C488        C  0.47691547  0.52179720  0.21348454     0.22500
C489        C  0.46031944  0.53383623  0.18122316    -0.33800
C490        C  0.47744399  0.52720179  0.14788073     0.16600
O491        O  0.02021853  0.00675670  0.11239223    -0.25800
C492        C  0.49576256  0.52159864  0.09163736     0.06400
C493        C  0.46846743  0.53475661  0.11224945    -0.30700
O494        O  0.46572457  0.52525886  0.24765773    -0.22500
C495        C  0.48979109  0.50944059  0.26820549    -0.02500
C496        C  0.01668839  0.99594011  0.24734702    -0.16900
H497        H  0.04974440  0.98439037  0.17784450     0.21100
H498        H  0.43577385  0.54732960  0.18205012     0.19200
H499        H  0.44535290  0.54780998  0.10237242     0.19400
H500        H  0.03969642  0.98249031  0.25684437     0.15200
C501        C  0.22846534  0.77536925  0.71119654     0.30700
C502        C  0.21678059  0.79184106  0.67883046    -0.35700
C503        C  0.22837881  0.77783466  0.64558120     0.16700
C504        C  0.24952602  0.74930101  0.64429642     0.22500
C505        C  0.26105602  0.73280266  0.67660012    -0.33800
C506        C  0.24984735  0.74706769  0.70977660     0.16600
O507        O  0.22210655  0.78487875  0.74533271    -0.25800
C508        C  0.23989420  0.76253244  0.76605070     0.06400
C509        C  0.25742952  0.73825269  0.74524939    -0.30700
O510        O  0.25738072  0.74061623  0.61031300    -0.22500
C511        C  0.24132113  0.76405205  0.58957289    -0.02500
C512        C  0.22288919  0.78791618  0.60994240    -0.16900
H513        H  0.20037041  0.81432958  0.67953766     0.21100
H514        H  0.27804168  0.71072988  0.67591956     0.19400
H515        H  0.27368907  0.71726801  0.75462214     0.19400
H516        H  0.20757662  0.80936112  0.59990928     0.15200
C517        C  0.37319406  0.65661229  0.93242516     0.30700
C518        C  0.34049376  0.67053461  0.94097092    -0.35700
C519        C  0.32848970  0.69684793  0.91734575     0.16700
C520        C  0.34736037  0.70830370  0.88734637     0.22500
C521        C  0.37999409  0.69462596  0.87897992    -0.33800
C522        C  0.39201890  0.66860565  0.90262184     0.16600
O523        O  0.38875312  0.63072244  0.94951207    -0.25800
C524        C  0.41798282  0.62639548  0.93050319     0.06400
C525        C  0.42132844  0.64927555  0.90105775    -0.30700
O526        O  0.33008077  0.73048616  0.86682082    -0.22500
C527        C  0.29970656  0.73379115  0.88382722    -0.02500
C528        C  0.29726401  0.71354903  0.91562905    -0.16900
H529        H  0.32507262  0.66085480  0.96372337     0.21100
H530        H  0.39449204  0.70292982  0.85494465     0.19400
H531        H  0.44181695  0.65066072  0.88070268     0.19400
H532        H  0.27472232  0.70920491  0.93269733     0.15200
C533        C  0.10272004  0.87580832  0.91226570     0.30700
C534        C  0.10891026  0.84898189  0.88782156    -0.35700
C535        C  0.14143034  0.83315244  0.89083575     0.16700
C536        C  0.16636226  0.84277179  0.91620604     0.22500
C537        C  0.15997799  0.86951797  0.94108385    -0.33800
C538        C  0.12732036  0.88559052  0.93796443     0.16600
O539        O  0.07501925  0.89556943  0.91222457    -0.25800
C540        C  0.08165629  0.91843041  0.93829545     0.06400
C541        C  0.11381753  0.91345312  0.95541950    -0.30700
O542        O  0.19600428  0.82608378  0.91187179    -0.22500
C543        C  0.18983228  0.80567130  0.88324330    -0.02500
C544        C  0.15612382  0.80887857  0.86947209    -0.16900
H545        H  0.09014575  0.84180952  0.86690413     0.21100
H546        H  0.17953976  0.87805273  0.96049903     0.19400
H547        H  0.12605243  0.92898484  0.97638463     0.19400
H548        H  0.14453830  0.79631236  0.84590528     0.15200
C549        C  0.77028756  0.25129657  0.86527531     0.04000
C550        C  0.74447494  0.26952898  0.88441682    -0.12100
C551        C  0.71712449  0.28545438  0.86457085     0.01500
C552        C  0.71604750  0.28286292  0.82580447    -0.10600
C553        C  0.74137970  0.26457449  0.80677313     0.04000
C554        C  0.76851095  0.24922182  0.82669294    -0.10100
H555        H  0.74574066  0.27142407  0.91425862     0.09600
H556        H  0.69559211  0.29549558  0.81016539     0.07200
H557        H  0.78860626  0.23549722  0.81217539     0.07000
Zn558      Zn  0.53761141  0.97120315  0.98308770     1.49700
Zn559      Zn  0.95918868  0.03200938  0.97846394     1.49400
Zn560      Zn  0.01094743  0.06377538  0.91752298     1.49100
Zn561      Zn  0.99139689  0.44216461  0.91652116     1.49500
O562        O  0.00104802  0.02376207  0.94913201    -1.83200
O563        O  0.52184632  0.96610029  0.03601764    -0.73800
O564        O  0.93520025  0.07589329  0.96257200    -0.73700
O565        O  0.55003410  0.04682941  0.93909162    -0.73200
O566        O  0.97107067  0.03323825  0.03277815    -0.73900
O567        O  0.57069158  0.01135993  0.98241154    -0.73500
O568        O  0.97070166  0.09695470  0.91960487    -0.74000
O569        O  0.99134642  0.45841149  0.86317050    -0.73400
O570        O  0.92242211  0.44723727  0.97050823    -0.74200
O571        O  0.01500536  0.05016329  0.86359007    -0.73600
O572        O  0.94737059  0.41549067  0.92741333    -0.74000
O573        O  0.53094069  0.44966024  0.92441477    -0.74000
O574        O  0.56558101  0.47021871  0.96825639    -0.73700
C575        C  0.99745775  0.02279370  0.05109429     0.78000
C576        C  0.94273269  0.09846234  0.93825352     0.78500
C577        C  0.57240604  0.03926115  0.96394035     0.77500
C578        C  0.00479343  0.02328167  0.84705038     0.77900
C579        C  0.92265588  0.42105350  0.94984846     0.79000
C580        C  0.55812717  0.44749814  0.94442759     0.78100
C581        C  0.73051482  0.20709428  0.03524062     0.04000
C582        C  0.74761547  0.23171305  0.01317370    -0.12100
C583        C  0.76650827  0.25821869  0.02985129     0.01500
C584        C  0.76822666  0.25999994  0.06853624    -0.10600
C585        C  0.75114622  0.23579896  0.09068665     0.04000
C586        C  0.73244930  0.20943668  0.07390415    -0.10100
H587        H  0.74582202  0.23063245  0.98338102     0.09600
H588        H  0.78248325  0.28067564  0.08136268     0.07200
H589        H  0.71900483  0.19085353  0.09108984     0.07000
C590        C  0.50289201  0.47929481  0.36750992     0.04000
C591        C  0.50375210  0.48056375  0.32869440    -0.12100
C592        C  0.49419562  0.97280999  0.31030041     0.01500
C593        C  0.97073563  0.03310372  0.32857284    -0.10600
C594        C  0.96951840  0.03233357  0.36738464     0.04000
C595        C  0.48588499  0.50539643  0.38689826    -0.10100
H596        H  0.51715203  0.46064155  0.31380699     0.09600
H597        H  0.95837836  0.05392123  0.31342813     0.07200
H598        H  0.49877856  0.97888592  0.41771595     0.07000
Zn599      Zn  0.73557451  0.30297230  0.47740761     1.49700
Zn600      Zn  0.75262255  0.22244971  0.48026893     1.49400
Zn601      Zn  0.70320842  0.25344803  0.41753616     1.49100
Zn602      Zn  0.78535160  0.27044513  0.41747546     1.49500
O603        O  0.74425355  0.26230069  0.44807772    -1.83200
O604        O  0.73273753  0.29015626  0.53110688    -0.73800
O605        O  0.71326607  0.18845224  0.47650647    -0.73700
O606        O  0.66821645  0.29190134  0.42083632    -0.73200
O607        O  0.75399336  0.23706588  0.53337209    -0.73900
O608        O  0.69102855  0.32675743  0.46258355    -0.73500
O609        O  0.67853639  0.20984086  0.43279668    -0.74000
O610        O  0.77196959  0.26935509  0.36350341    -0.73400
O611        O  0.79679488  0.19720136  0.46694613    -0.74200
O612        O  0.71747717  0.24999305  0.36447486    -0.73600
O613        O  0.81929065  0.23147803  0.42387147    -0.74000
O614        O  0.81006691  0.31521477  0.43011013    -0.74000
O615        O  0.77472817  0.33693995  0.47224883    -0.73700
C616        C  0.74281655  0.26383501  0.54922244     0.78000
C617        C  0.68580036  0.18688970  0.45686103     0.78500
C618        C  0.66700483  0.31913022  0.43981595     0.77500
C619        C  0.74486404  0.25848005  0.34701817     0.77900
C620        C  0.82028641  0.20415919  0.44339156     0.79000
C621        C  0.80230083  0.33860082  0.45298940     0.78100
C622        C  0.97062841  0.49097831  0.53022833     0.04000
C623        C  0.97131300  0.48752667  0.56889157    -0.12100
C624        C  0.49782146  0.00250801  0.58989875     0.01500
C625        C  0.52360545  0.02150217  0.57187763    -0.10600
C626        C  0.52351408  0.02520715  0.53315863     0.04000
C627        C  0.51489580  0.49134603  0.51302984    -0.10100
H628        H  0.95107021  0.47304525  0.58268437     0.09600
H629        H  0.54379183  0.03355197  0.58817339     0.07200
H630        H  0.49637014  0.01276169  0.48251328     0.07000
C631        C  0.57520203  0.08395022  0.48364208     0.30700
C632        C  0.58181202  0.11212139  0.46018344    -0.35700
C633        C  0.61506227  0.12680378  0.46311882     0.16700
C634        C  0.64008670  0.11445135  0.48727800     0.22500
C635        C  0.63365325  0.08612107  0.51029003    -0.33800
C636        C  0.60043506  0.07170607  0.50759172     0.16600
O637        O  0.54509035  0.06813374  0.48798369    -0.25800
C638        C  0.55117971  0.04567217  0.51524637     0.06400
C639        C  0.58527630  0.04667183  0.52819092    -0.30700
O640        O  0.66842543  0.13336740  0.48749322    -0.22500
C641        C  0.66167551  0.15819313  0.46306468    -0.02500
C642        C  0.62888837  0.15536057  0.44687342    -0.16900
H643        H  0.56200968  0.12269340  0.44203708     0.21100
H644        H  0.65274137  0.07685513  0.53006687     0.19400
H645        H  0.59678768  0.03214818  0.55077077     0.19400
H646        H  0.61652812  0.17264176  0.42726216     0.15200
C647        C  0.87082180  0.39820642  0.45744899     0.30700
C648        C  0.90473269  0.41066820  0.45184310    -0.35700
C649        C  0.91525425  0.43772342  0.47470684     0.16700
C650        C  0.89376118  0.45156804  0.50108620     0.22500
C651        C  0.85972112  0.43974972  0.50602231    -0.33800
C652        C  0.84934375  0.41266926  0.48343352     0.16600
O653        O  0.85684040  0.37080466  0.44212923    -0.25800
C654        C  0.82600312  0.36786464  0.45850643     0.06400
C655        C  0.81997428  0.39338635  0.48423485    -0.30700
O656        O  0.90999382  0.47341851  0.52259041    -0.22500
C657        C  0.94227857  0.47414128  0.50966804    -0.02500
C658        C  0.94709070  0.45249505  0.47975711    -0.16900
H659        H  0.92231883  0.39886290  0.43250434     0.21100
H660        H  0.84315818  0.44963518  0.52752656     0.19400
H661        H  0.79793604  0.39614951  0.50244334     0.19400
H662        H  0.97116943  0.44619247  0.46612642     0.15200
C663        C  0.56027931  0.42699904  0.41814359     0.30700
C664        C  0.58964390  0.42035717  0.44030893    -0.35700
C665        C  0.60468245  0.38778379  0.43668291     0.16700
C666        C  0.59152450  0.36331965  0.41316480     0.22500
C667        C  0.56185241  0.36971559  0.39158730    -0.33800
C668        C  0.54709336  0.40232994  0.39490136     0.16600
O669        O  0.54476517  0.45694941  0.41357800    -0.25800
C670        C  0.52145426  0.45132733  0.38699952     0.06400
C671        C  0.52159989  0.41770905  0.37466953    -0.30700
O672        O  0.61120431  0.33572902  0.41177737    -0.22500
C673        C  0.63732551  0.34248747  0.43477300    -0.02500
C674        C  0.63455553  0.37444414  0.45121297    -0.16900
H675        H  0.60105014  0.43981888  0.45764986     0.21100
H676        H  0.55205219  0.35119632  0.37208373     0.19400
H677        H  0.50687584  0.40691517  0.35203806     0.19400
H678        H  0.65270182  0.38662940  0.46985939     0.15200
C679        C  0.87689121  0.13376217  0.43763198     0.30700
C680        C  0.88878590  0.10012574  0.44422347    -0.35700
C681        C  0.91510546  0.08842765  0.42060346     0.16700
C682        C  0.92839822  0.10847621  0.39239951     0.22500
C683        C  0.91700677  0.14208270  0.38626389    -0.33800
C684        C  0.89100830  0.15375093  0.40985691     0.16600
O685        O  0.85075382  0.14916792  0.45427784    -0.25800
C686        C  0.84847826  0.17943326  0.43701272     0.06400
C687        C  0.87299895  0.18362842  0.40928199    -0.30700
O688        O  0.95014016  0.09172856  0.37131357    -0.22500
C689        C  0.95139536  0.06050258  0.38621728    -0.02500
C690        C  0.93034049  0.05695001  0.41728826    -0.16900
H691        H  0.87745991  0.08383874  0.46532853     0.21100
H692        H  0.92679285  0.15762013  0.36366238     0.19400
H693        H  0.87590406  0.20491543  0.39014296     0.19400
H694        H  0.92513528  0.03397955  0.43330895     0.15200
C695        C  0.76330856  0.25569597  0.25250780     0.30700
C696        C  0.78326849  0.26003530  0.22049049    -0.35700
C697        C  0.76733406  0.25023973  0.18732719     0.16700
C698        C  0.73424943  0.23669190  0.18581761     0.22500
C699        C  0.71427170  0.23241119  0.21780334    -0.33800
C700        C  0.73005471  0.24253560  0.25089208     0.16600
O701        O  0.77293121  0.26330424  0.28645499    -0.25800
C702        C  0.74539825  0.25504955  0.30673842     0.06400
C703        C  0.71795628  0.24201439  0.28610225    -0.30700
O704        O  0.72445251  0.22935538  0.15188350    -0.22500
C705        C  0.75145364  0.23866240  0.13128931    -0.02500
C706        C  0.77891854  0.25181360  0.15190206    -0.16900
H707        H  0.80926774  0.27054580  0.22134201     0.21100
H708        H  0.68818419  0.22211367  0.21691877     0.19400
H709        H  0.69288717  0.23320274  0.29572320     0.19400
H710        H  0.80378070  0.26110618  0.14221876     0.15200
C711        C  0.84850031  0.37443902  0.97386877     0.30700
C712        C  0.81839676  0.36811721  0.99432839    -0.35700
C713        C  0.80644050  0.33431794  0.99461451     0.16700
C714        C  0.82266445  0.30830436  0.97575761     0.22500
C715        C  0.85254969  0.31479397  0.95454918    -0.33800
C716        C  0.86477136  0.34875517  0.95452552     0.16600
O717        O  0.86605702  0.40333949  0.97344217    -0.25800
C718        C  0.89393396  0.39642680  0.95333789     0.06400
C719        C  0.89447250  0.36288495  0.94054338    -0.30700
O720        O  0.80923444  0.27792930  0.98358497    -0.22500
C721        C  0.78420394  0.28480968  0.00772693    -0.02500
C722        C  0.78125444  0.31945919  0.01534916    -0.16900
H723        H  0.80629112  0.38781181  0.01070113     0.21100
H724        H  0.86637065  0.29447533  0.94077628     0.19400
H725        H  0.91485147  0.35020736  0.92536655     0.19400
H726        H  0.76468172  0.33155674  0.03548193     0.15200
C727        C  0.68259714  0.13283862  0.01688424     0.30700
C728        C  0.66806202  0.10089457  0.02556995    -0.35700
C729        C  0.64249586  0.08905231  0.00119746     0.16700
C730        C  0.63170811  0.10742022  0.97042897     0.22500
C731        C  0.64670098  0.13925313  0.96140212    -0.33800
C732        C  0.67255882  0.15103982  0.98572324     0.16600
O733        O  0.70499026  0.14966075  0.03741219    -0.25800
C734        C  0.70987956  0.17898419  0.01912709     0.06400
C735        C  0.69055145  0.18117698  0.98649075    -0.30700
O736        O  0.60594231  0.09223671  0.95273635    -0.22500
C737        C  0.60047696  0.06366341  0.97231175    -0.02500
C738        C  0.62256725  0.06035359  0.00267731    -0.16900
H739        H  0.67548090  0.08669853  0.05022757     0.21100
H740        H  0.63818495  0.15416646  0.93765605     0.19400
H741        H  0.68841857  0.20262020  0.96742217     0.19400
H742        H  0.62304583  0.04026388  0.02351692     0.15200
C743        C  0.99514599  0.47624505  0.75192558     0.30700
C744        C  0.98681625  0.45964593  0.71880632    -0.35700
C745        C  0.99305125  0.47830924  0.68615666     0.16700
C746        C  0.50700162  0.01080933  0.68611402     0.22500
C747        C  0.51526555  0.02743287  0.71920963    -0.33800
C748        C  0.50864674  0.00894701  0.75186182     0.16600
O749        O  0.99088626  0.46383078  0.78566420    -0.25800
C750        C  0.50167991  0.98897677  0.80749504     0.06400
C751        C  0.51300775  0.01768810  0.78791884    -0.30700
O752        O  0.51078004  0.02346593  0.65244091    -0.22500
C753        C  0.49862879  0.99893454  0.63062128    -0.02500
C754        C  0.98728756  0.47021087  0.65011623    -0.16900
H755        H  0.97590971  0.43411781  0.71852833     0.21100
H756        H  0.52586702  0.05308607  0.71948672     0.19400
H757        H  0.52283178  0.04156116  0.79872026     0.19400
H758        H  0.97664766  0.44667273  0.63933907     0.15200
C759        C  0.50884025  0.51017059  0.14641577     0.30700
C760        C  0.52529944  0.49800181  0.17862778    -0.35700
C761        C  0.50802939  0.50433345  0.21188319     0.16700
C762        C  0.97689862  0.02182394  0.21353078     0.22500
C763        C  0.96031456  0.03388590  0.18127202    -0.33800
C764        C  0.97743814  0.02725031  0.14792919     0.16600
O765        O  0.52023723  0.50673240  0.11234479    -0.25800
C766        C  0.99575451  0.02164081  0.09168651     0.06400
C767        C  0.96846791  0.03481579  0.11229866    -0.30700
O768        O  0.96570760  0.02528138  0.24770444    -0.22500
C769        C  0.98976219  0.00944037  0.26824834    -0.02500
C770        C  0.51672552  0.49595133  0.24730749    -0.16900
H771        H  0.54978425  0.48440204  0.17780337     0.21100
H772        H  0.93577788  0.04739488  0.18210098     0.19200
H773        H  0.94536112  0.04788272  0.10242191     0.19400
H774        H  0.53974171  0.48251785  0.25680965     0.15200
C775        C  0.72838129  0.27528159  0.71119428     0.30700
C776        C  0.71666855  0.29175092  0.67883836    -0.35700
C777        C  0.72831053  0.27779482  0.64558217     0.16700
C778        C  0.74952209  0.24930812  0.64428345     0.22500
C779        C  0.76107836  0.23281157  0.67657600    -0.33800
C780        C  0.74982678  0.24702774  0.70975883     0.16600
O781        O  0.72200026  0.28475872  0.74533526    -0.25800
C782        C  0.73983649  0.26243988  0.76604019     0.06400
C783        C  0.75742538  0.23820824  0.74522538    -0.30700
O784        O  0.75740492  0.24066120  0.61029800    -0.22500
C785        C  0.74130010  0.26407483  0.58957035    -0.02500
C786        C  0.72280981  0.28788812  0.60994872    -0.16900
H787        H  0.70020846  0.31420350  0.67955874     0.21100
H788        H  0.77811493  0.21077738  0.67588286     0.19400
H789        H  0.77373566  0.21725646  0.75458299     0.19400
H790        H  0.70744826  0.30930250  0.59992463     0.15200
C791        C  0.87319490  0.15662315  0.93247151     0.30700
C792        C  0.84049492  0.17054704  0.94101205    -0.35700
C793        C  0.82848077  0.19683627  0.91736238     0.16700
C794        C  0.84734200  0.20827033  0.88734656     0.22500
C795        C  0.87997643  0.19459204  0.87898589    -0.33800
C796        C  0.89201091  0.16859456  0.90265137     0.16600
O797        O  0.88875657  0.13074351  0.94957308    -0.25800
C798        C  0.91797875  0.12640145  0.93055629     0.06400
C799        C  0.92131815  0.14926204  0.90109277    -0.30700
O800        O  0.83005153  0.23042945  0.86680181    -0.22500
C801        C  0.79968038  0.23374021  0.88381288    -0.02500
C802        C  0.79724955  0.21352390  0.91563359    -0.16900
H803        H  0.82507943  0.16088252  0.96377635     0.21100
H804        H  0.89446608  0.20287550  0.85493688     0.19400
H805        H  0.94179760  0.15062828  0.88072605     0.19400
H806        H  0.77471049  0.20918176  0.93270431     0.15200
C807        C  0.60270903  0.37578014  0.91220578     0.30700
C808        C  0.60888826  0.34893434  0.88778344    -0.35700
C809        C  0.64140611  0.33310144  0.89080299     0.16700
C810        C  0.66634709  0.34273753  0.91615574     0.22500
C811        C  0.65997419  0.36950345  0.94101124    -0.33800
C812        C  0.62731776  0.38557691  0.93788889     0.16600
O813        O  0.57500884  0.39554229  0.91216084    -0.25800
C814        C  0.58165492  0.41841703  0.93821501     0.06400
C815        C  0.61382129  0.41344888  0.95533046    -0.30700
O816        O  0.69598485  0.32604135  0.91182813    -0.22500
C817        C  0.68980025  0.30560537  0.88322284    -0.02500
C818        C  0.65608833  0.30880610  0.86945981    -0.16900
H819        H  0.59011627  0.34174758  0.86687952     0.21100
H820        H  0.67954209  0.37804935  0.96041361     0.19400
H821        H  0.62606209  0.42899048  0.97628314     0.19400
H822        H  0.64449398  0.29622246  0.84590883     0.15200
C823        C  0.76684121  0.70661860  0.86745808     0.04000
C824        C  0.74055345  0.72493431  0.88553681    -0.12100
C825        C  0.71556182  0.74314271  0.86465650     0.01500
C826        C  0.71717288  0.74283628  0.82579962    -0.10600
C827        C  0.74317412  0.72459845  0.80761823     0.04000
C828        C  0.76790157  0.70665414  0.82869220    -0.10100
H829        H  0.73988448  0.72545029  0.91545750     0.09600
H830        H  0.69844422  0.75735094  0.80957404     0.07200
H831        H  0.78856648  0.69300994  0.81495632     0.07000
Zn832      Zn  0.54098243  0.51465395  0.98169732     1.49700
Zn833      Zn  0.95556033  0.48622563  0.97964642     1.49400
Zn834      Zn  0.00638500  0.52240662  0.92170591     1.49100
Zn835      Zn  0.99254349  0.98398321  0.91823829     1.49500
O836        O  0.99778436  0.48050864  0.95026653    -1.83200
O837        O  0.52518043  0.51286243  0.03516121    -0.73800
O838        O  0.93007115  0.53038552  0.96721952    -0.73700
O839        O  0.55518849  0.58820458  0.93391164    -0.73200
O840        O  0.96714222  0.48473758  0.03406587    -0.73900
O841        O  0.57617443  0.55317100  0.97749664    -0.73500
O842        O  0.96598412  0.55479358  0.92688896    -0.74000
O843        O  0.99333222  0.99733496  0.86467844    -0.73400
O844        O  0.92428907  0.99357163  0.97269866    -0.74200
O845        O  0.00959411  0.51232968  0.86714467    -0.73600
O846        O  0.94722700  0.96007333  0.93001351    -0.74000
O847        O  0.53107803  0.90924394  0.92204595    -0.74000
O848        O  0.56413970  0.92848609  0.96795742    -0.73700
C849        C  0.99381293  0.47454861  0.05206743     0.78000
C850        C  0.93775714  0.55477651  0.94513234     0.78500
C851        C  0.57829400  0.58047392  0.95798831     0.77500
C852        C  0.00090811  0.48644067  0.84803961     0.77900
C853        C  0.92311712  0.96694187  0.95273825     0.79000
C854        C  0.55773980  0.90670635  0.94282332     0.78100
C855        C  0.74060379  0.74317036  0.02957277     0.04000
C856        C  0.75497852  0.77135578  0.01041984    -0.12100
C857        C  0.77252199  0.79719042  0.02996514     0.01500
C858        C  0.77577820  0.79447610  0.06864079    -0.10600
C859        C  0.76159161  0.76652201  0.08786054     0.04000
C860        C  0.74420539  0.74101285  0.06814576    -0.10100
H861        H  0.75238611  0.77327309  0.98062311     0.09600
H862        H  0.78921074  0.81427793  0.08382845     0.07200
H863        H  0.73289934  0.71955650  0.08304397     0.07000
C864        C  0.51270820  0.94913963  0.36992728     0.04000
C865        C  0.51105890  0.94740135  0.33119721    -0.12100
C866        C  0.48800132  0.50752200  0.30902237     0.01500
C867        C  0.97816828  0.49998061  0.32841169    -0.10600
C868        C  0.97931212  0.50219689  0.36712390     0.04000
C869        C  0.49694145  0.97683149  0.38795430    -0.10100
H870        H  0.52360481  0.92644818  0.31715386     0.09600
H871        H  0.96494632  0.51965721  0.31233014     0.07200
H872        H  0.48553449  0.50480215  0.41685164     0.07000
Zn873      Zn  0.75495730  0.78126063  0.47938981     1.49700
Zn874      Zn  0.77095472  0.70114050  0.47903354     1.49400
Zn875      Zn  0.72296660  0.73434689  0.41599927     1.49100
Zn876      Zn  0.80484325  0.74995163  0.41758705     1.49500
O877        O  0.76344200  0.74175215  0.44790823    -1.83200
O878        O  0.75167583  0.76646937  0.53297731    -0.73800
O879        O  0.73103814  0.66847940  0.47336165    -0.73700
O880        O  0.68814236  0.77223202  0.42258982    -0.73200
O881        O  0.77216890  0.71315807  0.53320494    -0.73900
O882        O  0.71063865  0.80661264  0.46504881    -0.73500
O883        O  0.69807214  0.68973501  0.42800753    -0.74000
O884        O  0.79146417  0.75524795  0.36355089    -0.73400
O885        O  0.81426893  0.67532412  0.46441800    -0.74200
O886        O  0.73693430  0.73617408  0.36226547    -0.73600
O887        O  0.83680677  0.70883136  0.42060323    -0.74000
O888        O  0.83136160  0.79230167  0.43440798    -0.74000
O889        O  0.79531614  0.81392617  0.47604417    -0.73700
C890        C  0.76116132  0.73938701  0.55020001     0.78000
C891        C  0.70443255  0.66683581  0.45245929     0.78500
C892        C  0.68663575  0.79908081  0.44214411     0.77500
C893        C  0.76413008  0.74686053  0.34579911     0.77900
C894        C  0.83722932  0.68139148  0.43999925     0.79000
C895        C  0.82364290  0.81509763  0.45797913     0.78100
C896        C  0.98775889  0.97557789  0.53293972     0.04000
C897        C  0.98585671  0.97984992  0.57141489    -0.12100
C898        C  0.51068969  0.49934899  0.59023836     0.01500
C899        C  0.53742089  0.51495698  0.57026414    -0.10600
C900        C  0.53990471  0.51094541  0.53180561     0.04000
C901        C  0.49679739  0.00991994  0.51234452    -0.10100
H902        H  0.96492897  0.96787499  0.58671835     0.09600
H903        H  0.55646057  0.53030289  0.58477437     0.07200
H904        H  0.51658848  0.48840603  0.48334285     0.07000
C905        C  0.59407964  0.56353191  0.47811934     0.30700
C906        C  0.60155314  0.59035342  0.45312614    -0.35700
C907        C  0.63441419  0.60571804  0.45697266     0.16700
C908        C  0.65825686  0.59509324  0.48333717     0.22500
C909        C  0.65103293  0.56808774  0.50781280    -0.33800
C910        C  0.61823482  0.55306165  0.50422185     0.16600
O911        O  0.56368528  0.54830299  0.48260440    -0.25800
C912        C  0.56859701  0.52803282  0.51202825     0.06400
C913        C  0.60214629  0.52978445  0.52628055    -0.30700
O914        O  0.68613199  0.61454127  0.48423992    -0.22500
C915        C  0.68037231  0.63802913  0.45808123    -0.02500
C916        C  0.64860783  0.63381063  0.44002000    -0.16900
H917        H  0.58247582  0.59973384  0.43340615     0.21100
H918        H  0.66907591  0.56048788  0.52943726     0.19400
H919        H  0.61238110  0.51756137  0.55103252     0.19400
H920        H  0.63702819  0.64998250  0.41883010     0.15200
C921        C  0.89268646  0.87390161  0.46531425     0.30700
C922        C  0.92593224  0.88782143  0.45894448    -0.35700
C923        C  0.93569022  0.91529296  0.48167115     0.16700
C924        C  0.91420870  0.92784560  0.50880081     0.22500
C925        C  0.88098515  0.91441108  0.51470129    -0.33800
C926        C  0.87127148  0.88721772  0.49205951     0.16600
O927        O  0.87877624  0.84695705  0.44899008    -0.25800
C928        C  0.84806242  0.84330005  0.46551521     0.06400
C929        C  0.84209956  0.86774406  0.49238977    -0.30700
O930        O  0.92929812  0.95133849  0.52907212    -0.22500
C931        C  0.96089302  0.95446307  0.51474439    -0.02500
C932        C  0.96631769  0.93284789  0.48483342    -0.16900
H933        H  0.94332945  0.87734084  0.43854731     0.21100
H934        H  0.86428989  0.92377060  0.53636837     0.19400
H935        H  0.81990287  0.87010627  0.51045232     0.19400
H936        H  0.98999803  0.92900451  0.46940146     0.15200
C937        C  0.57406976  0.90158454  0.42094055     0.30700
C938        C  0.60440158  0.89713155  0.44236597    -0.35700
C939        C  0.62138250  0.86540745  0.43899008     0.16700
C940        C  0.60914100  0.83987833  0.41627332     0.22500
C941        C  0.57862521  0.84405259  0.39552176    -0.33800
C942        C  0.56185981  0.87566202  0.39875012     0.16600
O943        O  0.55657192  0.93045941  0.41602569    -0.25800
C944        C  0.53296730  0.92279972  0.39031934     0.06400
C945        C  0.53484297  0.88887629  0.37909932    -0.30700
O946        O  0.63014611  0.81332666  0.41501450    -0.22500
C947        C  0.65626959  0.82164242  0.43734236    -0.02500
C948        C  0.65222051  0.85375711  0.45321851    -0.16900
H949        H  0.61496782  0.91754151  0.45900447     0.21100
H950        H  0.56949992  0.82458880  0.37673830     0.19400
H951        H  0.52030027  0.87654116  0.35728240     0.19400
H952        H  0.66997471  0.86702242  0.47140831     0.15200
C953        C  0.89081592  0.60881351  0.43419419     0.30700
C954        C  0.90163436  0.57502043  0.44169737    -0.35700
C955        C  0.92725178  0.56185781  0.41819610     0.16700
C956        C  0.94091941  0.58061073  0.38918786     0.22500
C957        C  0.93055092  0.61443668  0.38208481    -0.33800
C958        C  0.90519205  0.62761511  0.40561772     0.16600
O959        O  0.86562194  0.62552219  0.45092639    -0.25800
C960        C  0.86411730  0.65545321  0.43294097     0.06400
C961        C  0.88823852  0.65815398  0.40458603    -0.30700
O962        O  0.96194501  0.56247386  0.36853712    -0.22500
C963        C  0.96233271  0.53172553  0.38467844    -0.02500
C964        C  0.94136045  0.52986406  0.41589348    -0.16900
H965        H  0.89009134  0.55970446  0.46350405     0.21100
H966        H  0.94064179  0.62905070  0.35893506     0.19400
H967        H  0.89167127  0.67899069  0.38498064     0.19400
H968        H  0.93533386  0.50761012  0.43261650     0.15200
C969        C  0.77941647  0.76116704  0.25123038     0.30700
C970        C  0.79773909  0.77220168  0.21976263    -0.35700
C971        C  0.78079547  0.76771589  0.18565519     0.16700
C972        C  0.74831340  0.75300639  0.18278998     0.22500
C973        C  0.72993951  0.74227813  0.21417068    -0.33800
C974        C  0.74669234  0.74701956  0.24817893     0.16600
O975        O  0.79013454  0.76287059  0.28590680    -0.25800
C976        C  0.76382355  0.74975724  0.30520306     0.06400
C977        C  0.73610743  0.73954678  0.28313469    -0.30700
O978        O  0.73755962  0.75057672  0.14831143    -0.22500
C979        C  0.76322511  0.76427428  0.12863216    -0.02500
C980        C  0.79084536  0.77550536  0.15043239    -0.16900
H981        H  0.82333761  0.78350470  0.22173428     0.21100
H982        H  0.70435018  0.73095155  0.21218950     0.19400
H983        H  0.71172057  0.72823257  0.29165136     0.19400
H984        H  0.81496916  0.78713186  0.14158210     0.15200
C985        C  0.85048872  0.91954313  0.98117275     0.30700
C986        C  0.82332712  0.91082876  0.00517872    -0.35700
C987        C  0.81022731  0.87748471  0.00212561     0.16700
C988        C  0.82248264  0.85434191  0.97672675     0.22500
C989        C  0.84924096  0.86331614  0.95215928    -0.33800
C990        C  0.86278385  0.89654934  0.95563387     0.16600
O991        O  0.86915748  0.94782405  0.98239015    -0.25800
C992        C  0.89379339  0.94302458  0.95729231     0.06400
C993        C  0.89097020  0.91164105  0.93957791    -0.30700
O994        O  0.80917124  0.82342109  0.98153741    -0.22500
C995        C  0.78832909  0.82679465  0.01056091    -0.02500
C996        C  0.78781216  0.85997192  0.02423406    -0.16900
H997        H  0.81450536  0.92812592  0.02635019     0.21100
H998        H  0.86017185  0.84499927  0.93321743     0.19400
H999        H  0.90843522  0.90068511  0.91953803     0.19400
H1000       H  0.77465284  0.86922224  0.04855235     0.15200
C1001       C  0.69595859  0.66890902  0.00341183     0.30700
C1002       C  0.68382121  0.63535828  0.00861219    -0.35700
C1003       C  0.65462295  0.62609556  0.98766869     0.16700
C1004       C  0.63852383  0.64819708  0.96298602     0.22500
C1005       C  0.65110581  0.68166787  0.95726690    -0.33800
C1006       C  0.68029259  0.69101366  0.97842412     0.16600
O1007       O  0.72029407  0.68391636  0.02320791    -0.25800
C1008       C  0.72070753  0.71605105  0.01058334     0.06400
C1009       C  0.69642558  0.72189590  0.98255917    -0.30700
O1010       O  0.61001848  0.63490819  0.94845013    -0.22500
C1011       C  0.60787703  0.60391050  0.96407092    -0.02500
C1012       C  0.63506039  0.59706973  0.98857421    -0.16900
H1013       H  0.69532466  0.61819768  0.02892572     0.21100
H1014       H  0.63816916  0.69963414  0.93883080     0.19400
H1015       H  0.68953349  0.74602674  0.96967864     0.19400
H1016       H  0.63904751  0.57448824  0.00567568     0.15200
C1017       C  0.00043415  0.00087641  0.75387882     0.30700
C1018       C  0.99257637  0.97955421  0.72411336    -0.35700
C1019       C  0.00049901  0.99256744  0.68898913     0.16700
C1020       C  0.51559727  0.52424315  0.68335659     0.22500
C1021       C  0.52344251  0.54569858  0.71324123    -0.33800
C1022       C  0.51513975  0.53279143  0.74850293     0.16600
O1023       O  0.99498787  0.99366392  0.78895461    -0.25800
C1024       C  0.50615866  0.52129241  0.80650249     0.06400
C1025       C  0.51903889  0.54656592  0.78283375    -0.30700
O1026       O  0.52123368  0.53089406  0.64804625    -0.22500
C1027       C  0.50913319  0.50331537  0.63080944    -0.02500
C1028       C  0.99598837  0.97863041  0.65504984    -0.16900
H1029       H  0.98096505  0.95456374  0.72808210     0.21100
H1030       H  0.53514571  0.57064458  0.70927757     0.19400
H1031       H  0.52976753  0.57126830  0.78990154     0.19400
H1032       H  0.98527879  0.95376455  0.64864018     0.15200
C1033       C  0.50728237  0.96345333  0.14732490     0.30700
C1034       C  0.52528288  0.95356585  0.17949455    -0.35700
C1035       C  0.50937485  0.96194296  0.21297795     0.16700
C1036       C  0.97815085  0.47918323  0.21471338     0.22500
C1037       C  0.95995036  0.48873814  0.18254380    -0.33800
C1038       C  0.97570599  0.48012018  0.14903636     0.16600
O1039       O  0.51775607  0.95900418  0.11306795    -0.25800
C1040       C  0.99242138  0.47278435  0.09258559     0.06400
C1041       C  0.96549900  0.48614506  0.11350798    -0.30700
O1042       O  0.96862346  0.48529329  0.24897883    -0.22500
C1043       C  0.99393383  0.47148714  0.26944172    -0.02500
C1044       C  0.51994799  0.95656133  0.24845151    -0.16900
H1045       H  0.55007801  0.94053488  0.17849231     0.21100
H1046       H  0.93540477  0.50221568  0.18355973     0.19200
H1047       H  0.94221687  0.49908233  0.10391170     0.19400
H1048       H  0.54367959  0.94431437  0.25782106     0.15200
C1049       C  0.74031715  0.74363162  0.71237713     0.30700
C1050       C  0.73309107  0.76342791  0.68066622    -0.35700
C1051       C  0.74505513  0.75021669  0.64713599     0.16700
C1052       C  0.76257829  0.71947107  0.64489250     0.22500
C1053       C  0.76984803  0.69972644  0.67660008    -0.33800
C1054       C  0.75819128  0.71311243  0.71014297     0.16600
O1055       O  0.73214345  0.75138154  0.74664977    -0.25800
C1056       C  0.74522210  0.72563754  0.76675426     0.06400
C1057       C  0.76160549  0.70100622  0.74534801    -0.30700
O1058       O  0.77089244  0.71173563  0.61066188    -0.22500
C1059       C  0.75875177  0.73798460  0.59072641    -0.02500
C1060       C  0.74250205  0.76274342  0.61196679    -0.16900
H1061       H  0.71930256  0.78752903  0.68206456     0.21100
H1062       H  0.78376802  0.67569585  0.67523442     0.19400
H1063       H  0.77425688  0.67758180  0.75428541     0.19400
H1064       H  0.73010423  0.78621688  0.60272967     0.15200
C1065       C  0.86725765  0.61202134  0.93958010     0.30700
C1066       C  0.83322013  0.62408224  0.94552171    -0.35700
C1067       C  0.82205260  0.65112421  0.92227362     0.16700
C1068       C  0.84302871  0.66492496  0.89510314     0.22500
C1069       C  0.87700216  0.65342302  0.88971316    -0.33800
C1070       C  0.88810032  0.62672096  0.91286347     0.16600
O1071       O  0.88223498  0.58520514  0.95567902    -0.25800
C1072       C  0.91304379  0.58311704  0.93908610     0.06400
C1073       C  0.91804547  0.60844169  0.91242985    -0.30700
O1074       O  0.82667731  0.68718015  0.87387403    -0.22500
C1075       C  0.79476050  0.68832595  0.88759785    -0.02500
C1076       C  0.79030746  0.66664851  0.91810567    -0.16900
H1077       H  0.81621589  0.61231976  0.96571518     0.21100
H1078       H  0.89316969  0.66360608  0.86781144     0.19400
H1079       H  0.93986089  0.61173836  0.89395547     0.19400
H1080       H  0.76658902  0.66119532  0.93300495     0.15200
C1081       C  0.60224706  0.83510104  0.91058650     0.30700
C1082       C  0.60827207  0.80827815  0.88613277    -0.35700
C1083       C  0.64041556  0.79187950  0.88959673     0.16700
C1084       C  0.66510292  0.80096013  0.91547770     0.22500
C1085       C  0.65883239  0.82761247  0.94049817    -0.33800
C1086       C  0.62656335  0.84432134  0.93684297     0.16600
O1087       O  0.57492808  0.85530190  0.91010201    -0.25800
C1088       C  0.58149339  0.87791254  0.93640157     0.06400
C1089       C  0.61323671  0.87232851  0.95421589    -0.30700
O1090       O  0.69450736  0.78389320  0.91144900    -0.22500
C1091       C  0.68835527  0.76371122  0.88265255    -0.02500
C1092       C  0.65502735  0.76755240  0.86821579    -0.16900
H1093       H  0.58970064  0.80156680  0.86484188     0.21100
H1094       H  0.67824272  0.83563778  0.96034579     0.19400
H1095       H  0.62525141  0.88743491  0.97568451     0.19400
H1096       H  0.64377268  0.75537787  0.84422690     0.15200
loop_ 
_geom_bond_atom_site_label_1 
_geom_bond_atom_site_label_2 
_geom_bond_distance 
_geom_bond_site_symmetry_2 
_ccdc_geom_bond_type 
C1            C2   1.407       .  A
C1            C6   1.403       .  A
C1          C253   1.475       .  S
C2            C3   1.408       .  A
C2            H7   1.083       .  S
C3            C4   1.407       .  A
C3          C269   1.477       .  S
C4            C5   1.399       .  A
C4            H8   1.084       .  S
C5            C6   1.400       .  A
C5          C234   1.481       .  S
C6            H9   1.083       .  S
Zn10         O15   2.031   1_556  S
Zn10         O19   2.030       .  S
Zn10        O300   2.041   1_545  S
Zn10        O562   1.963       .  S
Zn11         O16   2.029   1_565  S
Zn11         O18   2.016   1_556  S
Zn11        O296   2.016       .  S
Zn11         O14   1.960       .  S
Zn12         O20   2.015       .  S
Zn12         O23   2.021       .  S
Zn12        O565   2.031       .  S
Zn12         O14   1.956   1_545  S
Zn13         O21   2.002       .  S
Zn13         O24   2.024       .  S
Zn13        O573   2.005       .  S
Zn13        O288   1.950       .  S
O14        Zn558   1.964       .  S
O14        Zn287   1.957       .  S
O15         C575   1.276   1_455  A
O16          C28   1.273       .  A
O17        Zn560   2.041       .  S
O17          C29   1.276       .  A
O18          C27   1.274       .  A
O19          C29   1.276       .  A
O20          C28   1.274       .  A
O21         C304   1.272       .  A
O22        Zn285   2.027       .  S
O22          C31   1.273       .  A
O23          C30   1.275   1_545  A
O24          C31   1.273       .  A
O25        Zn561   2.005   1_455  S
O25          C32   1.272       .  A
O26        Zn284   2.037       .  S
O26          C32   1.275       .  A
C27         C218   1.468       .  S
C27         O563   1.274       .  A
C28         C250   1.473       .  S
C29         C189   1.479       .  S
C30         C750   1.472       .  S
C30         O295   1.274       .  A
C31         C170   1.474       .  S
C32         C266   1.470       .  S
C33          C34   1.410       .  A
C33          C38   1.403       .  A
C33         C186   1.480       .  S
C34          C35   1.409       .  A
C34          H39   1.084   1_554  S
C35          C36   1.407       .  A
C35         C173   1.479       .  S
C36          C37   1.401       .  A
C36          H40   1.083       .  S
C37          C38   1.400       .  A
C37         C157   1.478       .  S
C38          H41   1.084       .  S
C42          C43   1.404       .  A
C42          C47   1.408   1_455  A
C42         C122   1.479       .  S
C43         C318   1.399   1_455  A
C43          H48   1.083       .  S
C44         C317   1.401   1_645  A
C44         C593   1.399       .  A
C44         C769   1.480       .  S
C45          C46   1.404   1_565  A
C45         C592   1.399       .  A
C45          H49   1.084   1_565  S
C46         C869   1.410   1_545  A
C46         C141   1.476       .  S
C47         C868   1.410       .  A
C47         H324   1.082       .  S
H50         C321   1.084       .  S
Zn51         O56   2.022       .  S
Zn51         O60   2.034       .  S
Zn51         O67   2.014       .  S
Zn51         O55   1.956       .  S
Zn52         O57   2.009       .  S
Zn52         O59   2.020       .  S
Zn52         O63   2.024       .  S
Zn52         O55   1.956       .  S
Zn53         O58   2.013       .  S
Zn53         O61   2.033       .  S
Zn53         O64   2.020       .  S
Zn53         O55   1.958       .  S
Zn54         O62   2.027       .  S
Zn54         O65   2.025       .  S
Zn54         O66   2.041       .  S
Zn54         O55   1.964       .  S
O56          C68   1.274       .  A
O57          C69   1.272       .  A
O58          C70   1.273       .  A
O59          C68   1.274       .  A
O60          C70   1.274       .  A
O61          C69   1.274       .  A
O62          C71   1.275       .  A
O63          C72   1.273       .  A
O64          C71   1.275       .  A
O65          C72   1.275       .  A
O66          C73   1.275       .  A
O67          C73   1.275       .  A
C68         C237   1.470       .  S
C69          C93   1.471       .  S
C70         C125   1.472       .  S
C71         C154   1.472       .  S
C72         C138   1.473       .  S
C73         C106   1.475       .  S
C74          C75   1.406       .  A
C74         C627   1.409       .  A
C74         C109   1.479       .  S
C75         C898   1.402       .  A
C75          H80   1.083       .  S
C76          C77   1.397   1_565  A
C76         C897   1.402   1_455  A
C76         C205   1.479   1_565  S
C77          C78   1.405       .  A
C77          H81   1.084       .  S
C78         C353   1.407   1_545  A
C78          C90   1.475       .  S
C79         C622   1.408       .  A
C79         C352   1.408   1_655  A
C79         H356   1.084       .  S
H82         C353   1.083       .  S
C83          C88   1.381       .  A
C83          C84   1.407       .  A
C83          O89   1.323       .  A
C84          C85   1.407       .  A
C84          H95   1.082       .  S
C85          C94   1.367       .  A
C85          C86   1.381       .  A
C86          C87   1.399       .  A
C86          O92   1.315       .  A
C87          C88   1.399       .  A
C87          H96   1.083       .  S
C88          C91   1.356       .  A
O89          C90   1.333       .  A
C90          C91   1.390       .  A
C91          H97   1.083       .  S
O92          C93   1.329       .  A
C93          C94   1.394       .  A
C94          H98   1.082       .  S
C99         C104   1.380       .  A
C99         C100   1.410       .  A
C99         O105   1.324       .  A
C100        C101   1.409       .  A
C100        H111   1.082       .  S
C101        C110   1.369       .  A
C101        C102   1.380       .  A
C102        C103   1.399       .  A
C102        O108   1.314       .  A
C103        C104   1.398       .  A
C103        H112   1.082       .  S
C104        C107   1.357       .  A
O105        C106   1.335       .  A
C106        C107   1.390       .  A
C107        H113   1.083       .  S
O108        C109   1.330       .  A
C109        C110   1.396       .  A
C110        H114   1.082       .  S
C115        C120   1.380       .  A
C115        C116   1.408       .  A
C115        O121   1.323       .  A
C116        C117   1.407       .  A
C116        H127   1.082       .  S
C117        C126   1.367       .  A
C117        C118   1.380       .  A
C118        C119   1.399       .  A
C118        O124   1.316       .  A
C119        C120   1.399       .  A
C119        H128   1.082       .  S
C120        C123   1.356       .  A
O121        C122   1.333       .  A
C122        C123   1.392       .  A
C123        H129   1.083       .  S
O124        C125   1.329       .  A
C125        C126   1.394       .  A
C126        H130   1.082       .  S
C131        C136   1.380       .  A
C131        C132   1.407       .  A
C131        O137   1.321       .  A
C132        C133   1.406       .  A
C132        H143   1.082       .  S
C133        C142   1.366       .  A
C133        C134   1.380       .  A
C134        C135   1.401       .  A
C134        O140   1.316       .  A
C135        C136   1.400       .  A
C135        H144   1.082       .  S
C136        C139   1.360       .  A
O137        C138   1.333       .  A
C138        C139   1.390       .  A
C139        H145   1.083       .  S
O140        C141   1.330       .  A
C141        C142   1.393       .  A
C142        H146   1.080       .  S
C147        C152   1.380       .  A
C147        C148   1.406       .  A
C147        O153   1.321       .  A
C148        C149   1.405       .  A
C148        H159   1.082       .  S
C149        C158   1.365       .  A
C149        C150   1.380       .  A
C150        C151   1.401       .  A
C150        O156   1.316       .  A
C151        C152   1.400       .  A
C151        H160   1.082       .  S
C152        C155   1.359       .  A
O153        C154   1.332       .  A
C154        C155   1.390       .  A
C155        H161   1.083       .  S
O156        C157   1.330       .  A
C157        C158   1.394       .  A
C158        H162   1.082       .  S
C163        C168   1.380       .  A
C163        C164   1.402   1_556  A
C163        O169   1.319       .  A
C164        C165   1.402       .  A
C164        H175   1.082       .  S
C165        C174   1.359       .  A
C165        C166   1.380   1_554  A
C166        C167   1.406       .  A
C166        O172   1.322       .  A
C167        C168   1.406       .  A
C167        H176   1.082       .  S
C168        C171   1.364       .  A
O169        C170   1.331       .  A
C170        C171   1.393       .  A
C171        H177   1.082       .  S
O172        C173   1.332   1_556  A
C173        C174   1.392       .  A
C174        H178   1.083       .  S
C179        C184   1.380   1_554  A
C179        C180   1.403       .  A
C179        O185   1.318       .  A
C180        C181   1.402   1_554  A
C180        H191   1.082       .  S
C181        C190   1.362       .  A
C181        C182   1.380       .  A
C182        C183   1.408       .  A
C182        O188   1.323       .  A
C183        C184   1.407       .  A
C183        H192   1.083       .  S
C184        C187   1.366       .  A
O185        C186   1.331       .  A
C186        C187   1.392   1_554  A
C187        H193   1.080       .  S
O188        C189   1.334       .  A
C189        C190   1.392       .  A
C190        H194   1.083   1_556  S
C195        C196   1.400       .  A
C195       C1022   1.380       .  A
C195        O201   1.315       .  A
C196        C197   1.399       .  A
C196        H207   1.082       .  S
C197        C206   1.359       .  A
C197       C1020   1.379       .  A
C198        C199   1.406       .  A
C198       C1019   1.380   1_545  A
C198        O204   1.320       .  A
C199        C200   1.405       .  A
C199        H208   1.082       .  S
C200        C203   1.366       .  A
C200       C1017   1.380       .  A
O201       C1024   1.329       .  A
C202        C203   1.393       .  A
C202        C578   1.468       .  S
C202       O1023   1.329   1_445  A
C203        H209   1.082       .  S
O204        C205   1.333       .  A
C205       C1028   1.391   1_445  A
C206       C1027   1.391       .  A
C206        H210   1.082       .  S
C211        C212   1.402       .  A
C211       C1038   1.381   1_455  A
C211        O217   1.318       .  A
C212        C213   1.402       .  A
C212        H223   1.082       .  S
C213        C222   1.358       .  A
C213       C1036   1.380   1_455  A
C214        C215   1.402       .  A
C214       C1035   1.380       .  A
C214        O220   1.319       .  A
C215        C216   1.402       .  A
C215        H224   1.082   1_565  S
C216        C219   1.360       .  A
C216       C1033   1.381       .  A
O217       C1040   1.330   1_455  A
C218        C219   1.391       .  A
C218       O1039   1.330       .  A
C219        H225   1.082       .  S
O220        C221   1.331       .  A
C221       C1044   1.393       .  A
C221        C592   1.477       .  S
C222       C1043   1.393   1_455  A
C222        H226   1.082       .  S
C227        C232   1.379       .  A
C227        C228   1.403       .  A
C227        O233   1.319       .  A
C228        C229   1.403       .  A
C228        H239   1.082       .  S
C229        C238   1.361       .  A
C229        C230   1.380       .  A
C230        C231   1.402       .  A
C230        O236   1.319       .  A
C231        C232   1.402       .  A
C231        H240   1.082       .  S
C232        C235   1.360       .  A
O233        C234   1.332       .  A
C234        C235   1.394       .  A
C235        H241   1.082       .  S
O236        C237   1.331       .  A
C237        C238   1.392       .  A
C238        H242   1.082       .  S
C243        C248   1.380       .  A
C243        C244   1.410       .  A
C243        O249   1.324       .  A
C244        C245   1.409       .  A
C244        H255   1.082       .  S
C245        C254   1.371       .  A
C245        C246   1.381       .  A
C246        C247   1.398       .  A
C246        O252   1.312       .  A
C247        C248   1.396       .  A
C247        H256   1.083       .  S
C248        C251   1.356       .  A
O249        C250   1.335       .  A
C250        C251   1.388       .  A
C251        H257   1.083       .  S
O252        C253   1.328       .  A
C253        C254   1.395       .  A
C254        H258   1.083       .  S
C259        C264   1.381       .  A
C259        C260   1.398       .  A
C259        O265   1.314       .  A
C260        C261   1.397       .  A
C260        H271   1.082       .  S
C261        C270   1.355       .  A
C261        C262   1.380       .  A
C262        C263   1.408       .  A
C262        O268   1.323       .  A
C263        C264   1.408       .  A
C263        H272   1.082       .  S
C264        C267   1.368       .  A
O265        C266   1.328       .  A
C266        C267   1.395       .  A
C267        H273   1.082       .  S
O268        C269   1.333       .  A
C269        C270   1.390       .  A
C270        H274   1.083       .  S
C275        C276   1.411       .  A
C275        C280   1.400       .  A
C275        C527   1.477       .  S
C276        C277   1.412       .  A
C276        H281   1.084       .  S
C277        C278   1.407       .  A
C277        C543   1.483       .  S
C278        C279   1.397       .  A
C278        H282   1.083       .  S
C279        C280   1.397       .  A
C279        C508   1.478       .  S
C280        H283   1.082       .  S
Zn284       O289   2.019   1_556  S
Zn284       O293   2.021       .  S
Zn284       O836   1.964   1_455  S
Zn285       O290   2.023       .  S
Zn285       O292   2.016   1_556  S
Zn285       O288   1.962       .  S
Zn286       O839   2.041       .  S
Zn286       O294   2.022       .  S
Zn286       O297   2.034       .  S
Zn286       O288   1.966       .  S
Zn287       O295   2.025       .  S
Zn287       O298   2.028       .  S
Zn287       O847   2.005       .  S
O288       Zn832   1.963       .  S
O289        C849   1.274   1_455  A
O290        C302   1.274       .  A
O291       Zn834   2.031       .  S
O291        C303   1.274       .  A
O292        C301   1.274       .  A
O293        C303   1.274       .  A
O294        C302   1.275       .  A
O296        C305   1.273       .  A
O297        C304   1.275       .  A
O298        C305   1.274       .  A
O299       Zn835   2.005   1_455  S
O299        C306   1.272       .  A
O300        C306   1.275       .  A
C301        C492   1.470       .  S
C301        O837   1.276       .  A
C302        C524   1.472       .  S
C303        C463   1.474       .  S
C304       C1024   1.468       .  S
C305        C444   1.471       .  S
C306        C540   1.472       .  S
C307        C308   1.409       .  A
C307        C312   1.404       .  A
C307        C460   1.478       .  S
C308        C309   1.405       .  A
C308        H313   1.081   1_554  S
C309        C310   1.403       .  A
C309        C447   1.474       .  S
C310        C311   1.399       .  A
C310        H314   1.084       .  S
C311        C312   1.399       .  A
C311        C431   1.474       .  S
C312        H315   1.084       .  S
C316        C317   1.405       .  A
C316        C321   1.407   1_465  A
C316        C396   1.476       .  S
C317        H322   1.083       .  S
C318        C867   1.399       .  A
C318       C1043   1.477       .  S
C319        C866   1.399       .  A
C319        C320   1.405       .  A
C319        H323   1.084       .  S
C320        C595   1.408       .  A
C320        C415   1.477       .  S
C321        C594   1.408       .  A
Zn325       O330   2.004       .  S
Zn325       O334   2.017       .  S
Zn325       O341   2.016       .  S
Zn325       O329   1.949       .  S
Zn326       O331   2.020       .  S
Zn326       O333   2.010       .  S
Zn326       O337   2.028       .  S
Zn326       O329   1.960       .  S
Zn327       O332   2.022       .  S
Zn327       O335   2.024       .  S
Zn327       O338   2.005       .  S
Zn327       O329   1.956       .  S
Zn328       O336   2.018       .  S
Zn328       O339   2.016       .  S
Zn328       O340   2.046       .  S
Zn328       O329   1.960       .  S
O330        C342   1.273       .  A
O331        C343   1.273       .  A
O332        C344   1.273       .  A
O333        C342   1.274       .  A
O334        C344   1.273       .  A
O335        C343   1.273       .  A
O336        C345   1.274       .  A
O337        C346   1.273       .  A
O338        C345   1.274       .  A
O339        C346   1.274       .  A
O340        C347   1.275       .  A
O341        C347   1.274       .  A
C342        C511   1.461       .  S
C343        C367   1.472       .  S
C344        C399   1.471       .  S
C345        C428   1.465       .  S
C346        C412   1.473       .  S
C347        C380   1.477       .  S
C348        C349   1.404       .  A
C348        C901   1.408   1_565  A
C348        C383   1.476       .  S
C349        C624   1.401   1_565  A
C349        H354   1.084       .  S
C350        C623   1.401       .  A
C350        C351   1.399   1_655  A
C350        C479   1.478       .  S
C351        C352   1.407       .  A
C351        H355   1.084       .  S
C352        C364   1.480       .  S
C353        C896   1.409   1_455  A
C357        C362   1.380       .  A
C357        C358   1.407       .  A
C357        O363   1.323       .  A
C358        C359   1.407       .  A
C358        H369   1.082       .  S
C359        C368   1.365       .  A
C359        C360   1.381       .  A
C360        C361   1.401       .  A
C360        O366   1.318       .  A
C361        C362   1.401       .  A
C361        H370   1.082       .  S
C362        C365   1.357       .  A
O363        C364   1.333       .  A
C364        C365   1.392       .  A
C365        H371   1.082       .  S
O366        C367   1.330       .  A
C367        C368   1.394       .  A
C368        H372   1.082       .  S
C373        C378   1.380       .  A
C373        C374   1.408       .  A
C373        O379   1.324       .  A
C374        C375   1.407       .  A
C374        H385   1.082       .  S
C375        C384   1.367       .  A
C375        C376   1.380       .  A
C376        C377   1.401       .  A
C376        O382   1.317       .  A
C377        C378   1.401       .  A
C377        H386   1.082       .  S
C378        C381   1.359       .  A
O379        C380   1.334       .  A
C380        C381   1.391       .  A
C381        H387   1.083       .  S
O382        C383   1.330       .  A
C383        C384   1.393       .  A
C384        H388   1.081       .  S
C389        C394   1.381       .  A
C389        C390   1.405       .  A
C389        O395   1.322       .  A
C390        C391   1.405       .  A
C390        H401   1.082       .  S
C391        C400   1.363       .  A
C391        C392   1.381       .  A
C392        C393   1.401       .  A
C392        O398   1.319       .  A
C393        C394   1.401       .  A
C393        H402   1.082       .  S
C394        C397   1.357       .  A
O395        C396   1.332       .  A
C396        C397   1.391       .  A
C397        H403   1.083       .  S
O398        C399   1.330       .  A
C399        C400   1.393       .  A
C400        H404   1.082       .  S
C405        C410   1.380       .  A
C405        C406   1.409       .  A
C405        O411   1.323       .  A
C406        C407   1.408       .  A
C406        H417   1.082       .  S
C407        C416   1.369       .  A
C407        C408   1.380       .  A
C408        C409   1.399       .  A
C408        O414   1.314       .  A
C409        C410   1.398       .  A
C409        H418   1.082       .  S
C410        C413   1.357       .  A
O411        C412   1.334       .  A
C412        C413   1.389       .  A
C413        H419   1.083       .  S
O414        C415   1.329       .  A
C415        C416   1.395       .  A
C416        H420   1.082       .  S
C421        C426   1.381       .  A
C421        C422   1.402       .  A
C421        O427   1.318       .  A
C422        C423   1.401       .  A
C422        H433   1.082       .  S
C423        C432   1.360       .  A
C423        C424   1.380       .  A
C424        C425   1.401       .  A
C424        O430   1.317       .  A
C425        C426   1.400       .  A
C425        H434   1.082       .  S
C426        C429   1.358       .  A
O427        C428   1.330       .  A
C428        C429   1.390       .  A
C429        H435   1.083       .  S
O430        C431   1.330       .  A
C431        C432   1.392       .  A
C432        H436   1.082       .  S
C437        C442   1.381       .  A
C437        C438   1.399       .  A
C437        O443   1.316       .  A
C438        C439   1.398       .  A
C438        H449   1.082   1_556  S
C439        C448   1.356   1_556  A
C439        C440   1.381       .  A
C440        C441   1.408       .  A
C440        O446   1.323       .  A
C441        C442   1.408       .  A
C441        H450   1.082       .  S
C442        C445   1.367       .  A
O443        C444   1.328       .  A
C444        C445   1.394       .  A
C445        H451   1.082       .  S
O446        C447   1.333   1_556  A
C447        C448   1.389       .  A
C448        H452   1.083       .  S
C453        C458   1.380   1_554  A
C453        C454   1.401       .  A
C453        O459   1.315       .  A
C454        C455   1.400       .  A
C454        H465   1.082       .  S
C455        C464   1.359       .  A
C455        C456   1.380   1_554  A
C456        C457   1.407       .  A
C456        O462   1.322       .  A
C457        C458   1.406       .  A
C457        H466   1.082       .  S
C458        C461   1.367       .  A
O459        C460   1.331       .  A
C460        C461   1.394   1_554  A
C461        H467   1.082       .  S
O462        C463   1.333       .  A
C463        C464   1.391   1_556  A
C464        H468   1.083       .  S
C469        C748   1.380   1_565  A
C469        C470   1.404       .  A
C469        O475   1.320       .  A
C470        C471   1.403       .  A
C470        H481   1.082       .  S
C471        C480   1.362       .  A
C471        C746   1.380   1_565  A
C472        C745   1.380   1_455  A
C472        C473   1.403       .  A
C472        O478   1.319       .  A
C473        C474   1.402       .  A
C473        H482   1.082       .  S
C474        C743   1.380   1_455  A
C474        C477   1.361       .  A
O475        C750   1.331       .  A
C476        C477   1.392       .  A
C476        C852   1.472       .  S
C476        O749   1.331   1_455  A
C477        H483   1.082       .  S
O478        C479   1.331   1_455  A
C479        C754   1.393       .  A
C480        C753   1.393       .  A
C480        H484   1.082       .  S
C485        C764   1.381   1_455  A
C485        C486   1.402   1_545  A
C485        O491   1.318       .  A
C486        C487   1.401   1_565  A
C486        H497   1.082       .  S
C487        C496   1.359   1_545  A
C487        C762   1.380   1_455  A
C488        C761   1.380       .  A
C488        C489   1.404       .  A
C488        O494   1.319       .  A
C489        C490   1.404       .  A
C489        H498   1.082       .  S
C490        C759   1.381       .  A
C490        C493   1.362       .  A
O491        C766   1.330   1_455  A
C492        C493   1.393       .  A
C492        O765   1.330       .  A
C493        H499   1.082       .  S
O494        C495   1.332       .  A
C495        C770   1.393       .  A
C495        C866   1.480       .  S
C496        C769   1.393   1_465  A
C496        H500   1.082       .  S
C501        C506   1.379       .  A
C501        C502   1.402       .  A
C501        O507   1.317       .  A
C502        C503   1.401       .  A
C502        H513   1.082       .  S
C503        C512   1.360       .  A
C503        C504   1.381       .  A
C504        C505   1.399       .  A
C504        O510   1.315       .  A
C505        C506   1.398       .  A
C505        H514   1.082       .  S
C506        C509   1.355       .  A
O507        C508   1.332       .  A
C508        C509   1.393       .  A
C509        H515   1.082       .  S
O510        C511   1.328       .  A
C511        C512   1.391       .  A
C512        H516   1.083       .  S
C517        C522   1.380       .  A
C517        C518   1.408       .  A
C517        O523   1.321       .  A
C518        C519   1.406       .  A
C518        H529   1.082       .  S
C519        C528   1.368       .  A
C519        C520   1.380       .  A
C520        C521   1.401       .  A
C520        O526   1.314       .  A
C521        C522   1.399       .  A
C521        H530   1.082       .  S
C522        C525   1.359       .  A
O523        C524   1.333       .  A
C524        C525   1.390       .  A
C525        H531   1.083       .  S
O526        C527   1.331       .  A
C527        C528   1.393       .  A
C528        H532   1.080       .  S
C533        C538   1.380       .  A
C533        C534   1.399       .  A
C533        O539   1.316       .  A
C534        C535   1.399       .  A
C534        H545   1.083       .  S
C535        C544   1.355       .  A
C535        C536   1.380       .  A
C536        C537   1.408       .  A
C536        O542   1.325       .  A
C537        C538   1.408       .  A
C537        H546   1.082       .  S
C538        C541   1.368       .  A
O539        C540   1.329       .  A
C540        C541   1.394       .  A
C541        H547   1.082       .  S
O542        C543   1.334       .  A
C543        C544   1.393       .  A
C544        H548   1.082       .  S
C549        C550   1.411       .  A
C549        C554   1.400       .  A
C549        C801   1.477       .  S
C550        C551   1.412       .  A
C550        H555   1.084       .  S
C551        C552   1.407       .  A
C551        C817   1.483       .  S
C552        C553   1.397       .  A
C552        H556   1.083       .  S
C553        C554   1.397       .  A
C553        C782   1.478       .  S
C554        H557   1.082       .  S
Zn558       O563   2.019   1_556  S
Zn558       O567   2.021   1_565  S
Zn558       O848   2.037       .  S
Zn559       O564   2.023       .  S
Zn559       O566   2.016   1_556  S
Zn559       O844   2.027   1_545  S
Zn559       O562   1.962   1_655  S
Zn560       O568   2.022   1_455  S
Zn560       O571   2.034       .  S
Zn560       O562   1.966       .  S
Zn561       O569   2.025       .  S
Zn561       O572   2.028       .  S
Zn561       O836   1.957       .  S
O562       Zn835   1.950   1_445  S
O564        C576   1.274       .  A
O565        C577   1.274       .  A
O566        C575   1.274       .  A
O567        C577   1.274       .  A
O568        C576   1.275       .  A
O569        C852   1.274   1_655  A
O570       Zn833   2.016       .  S
O570        C579   1.273       .  A
O571        C578   1.275       .  A
O572        C579   1.274       .  A
O573        C580   1.272       .  A
O574       Zn832   2.041       .  S
O574        C580   1.275       .  A
C575        C766   1.470       .  S
C576        C798   1.472       .  S
C577        C737   1.474       .  S
C578        O843   1.272   1_445  A
C579        C718   1.471       .  S
C580        C814   1.472       .  S
C581        C582   1.409       .  A
C581        C586   1.404       .  A
C581        C734   1.478       .  S
C582        C583   1.405       .  A
C582        H587   1.081   1_554  S
C583        C584   1.403       .  A
C583        C721   1.474       .  S
C584        C585   1.399       .  A
C584        H588   1.084       .  S
C585        C586   1.399       .  A
C585        C705   1.474       .  S
C586        H589   1.084       .  S
C590        C591   1.405       .  A
C590        C595   1.407       .  A
C590        C670   1.476       .  S
C591        C866   1.401       .  A
C591        H596   1.083       .  S
C592        C865   1.399       .  A
C593        C594   1.405       .  A
C593        H597   1.084       .  S
C594        C689   1.477       .  S
C595        H872   1.084       .  S
H598        C869   1.082       .  S
Zn599       O604   2.004       .  S
Zn599       O608   2.017       .  S
Zn599       O615   2.017       .  S
Zn599       O603   1.949       .  S
Zn600       O605   2.020       .  S
Zn600       O607   2.010       .  S
Zn600       O611   2.028       .  S
Zn600       O603   1.960       .  S
Zn601       O606   2.022       .  S
Zn601       O609   2.024       .  S
Zn601       O612   2.005       .  S
Zn601       O603   1.956       .  S
Zn602       O610   2.018       .  S
Zn602       O613   2.016       .  S
Zn602       O614   2.046       .  S
Zn602       O603   1.960       .  S
O604        C616   1.273       .  A
O605        C617   1.273       .  A
O606        C618   1.273       .  A
O607        C616   1.274       .  A
O608        C618   1.273       .  A
O609        C617   1.273       .  A
O610        C619   1.274       .  A
O611        C620   1.273       .  A
O612        C619   1.274       .  A
O613        C620   1.274       .  A
O614        C621   1.275       .  A
O615        C621   1.274       .  A
C616        C785   1.461       .  S
C617        C641   1.472       .  S
C618        C673   1.471       .  S
C619        C702   1.465       .  S
C620        C686   1.473       .  S
C621        C654   1.477       .  S
C622        C623   1.404       .  A
C622        C657   1.476       .  S
C623        H628   1.084       .  S
C624        C625   1.399       .  A
C624        C753   1.478   1_545  S
C625        C626   1.407       .  A
C625        H629   1.084       .  S
C626        C901   1.408       .  A
C626        C638   1.480       .  S
C627        C900   1.407       .  A
C627        H904   1.083       .  S
H630        C901   1.084       .  S
C631        C636   1.380       .  A
C631        C632   1.407       .  A
C631        O637   1.323       .  A
C632        C633   1.407       .  A
C632        H643   1.082       .  S
C633        C642   1.365       .  A
C633        C634   1.381       .  A
C634        C635   1.401       .  A
C634        O640   1.318       .  A
C635        C636   1.401       .  A
C635        H644   1.082       .  S
C636        C639   1.357       .  A
O637        C638   1.333       .  A
C638        C639   1.392       .  A
C639        H645   1.082       .  S
O640        C641   1.330       .  A
C641        C642   1.394       .  A
C642        H646   1.082       .  S
C647        C652   1.380       .  A
C647        C648   1.408       .  A
C647        O653   1.324       .  A
C648        C649   1.407       .  A
C648        H659   1.082       .  S
C649        C658   1.367       .  A
C649        C650   1.380       .  A
C650        C651   1.401       .  A
C650        O656   1.317       .  A
C651        C652   1.401       .  A
C651        H660   1.082       .  S
C652        C655   1.359       .  A
O653        C654   1.334       .  A
C654        C655   1.391       .  A
C655        H661   1.083       .  S
O656        C657   1.330       .  A
C657        C658   1.393       .  A
C658        H662   1.081       .  S
C663        C668   1.381       .  A
C663        C664   1.405       .  A
C663        O669   1.322       .  A
C664        C665   1.405       .  A
C664        H675   1.082       .  S
C665        C674   1.363       .  A
C665        C666   1.381       .  A
C666        C667   1.401       .  A
C666        O672   1.319       .  A
C667        C668   1.401       .  A
C667        H676   1.082       .  S
C668        C671   1.357       .  A
O669        C670   1.332       .  A
C670        C671   1.391       .  A
C671        H677   1.083       .  S
O672        C673   1.330       .  A
C673        C674   1.393       .  A
C674        H678   1.082       .  S
C679        C684   1.380       .  A
C679        C680   1.409       .  A
C679        O685   1.323       .  A
C680        C681   1.408       .  A
C680        H691   1.082       .  S
C681        C690   1.369       .  A
C681        C682   1.380       .  A
C682        C683   1.399       .  A
C682        O688   1.314       .  A
C683        C684   1.398       .  A
C683        H692   1.082       .  S
C684        C687   1.357       .  A
O685        C686   1.334       .  A
C686        C687   1.389       .  A
C687        H693   1.083       .  S
O688        C689   1.329       .  A
C689        C690   1.395       .  A
C690        H694   1.082       .  S
C695        C700   1.381       .  A
C695        C696   1.402       .  A
C695        O701   1.318       .  A
C696        C697   1.401       .  A
C696        H707   1.082       .  S
C697        C706   1.360       .  A
C697        C698   1.380       .  A
C698        C699   1.401       .  A
C698        O704   1.317       .  A
C699        C700   1.400       .  A
C699        H708   1.082       .  S
C700        C703   1.358       .  A
O701        C702   1.330       .  A
C702        C703   1.390       .  A
C703        H709   1.083       .  S
O704        C705   1.330       .  A
C705        C706   1.392       .  A
C706        H710   1.082       .  S
C711        C716   1.381       .  A
C711        C712   1.399       .  A
C711        O717   1.316       .  A
C712        C713   1.398       .  A
C712        H723   1.082   1_556  S
C713        C722   1.356   1_556  A
C713        C714   1.381       .  A
C714        C715   1.408       .  A
C714        O720   1.323       .  A
C715        C716   1.408       .  A
C715        H724   1.082       .  S
C716        C719   1.367       .  A
O717        C718   1.328       .  A
C718        C719   1.394       .  A
C719        H725   1.082       .  S
O720        C721   1.333   1_556  A
C721        C722   1.389       .  A
C722        H726   1.083       .  S
C727        C732   1.380   1_554  A
C727        C728   1.401       .  A
C727        O733   1.315       .  A
C728        C729   1.400       .  A
C728        H739   1.082       .  S
C729        C738   1.359       .  A
C729        C730   1.380   1_554  A
C730        C731   1.407       .  A
C730        O736   1.322       .  A
C731        C732   1.406       .  A
C731        H740   1.082       .  S
C732        C735   1.367       .  A
O733        C734   1.331       .  A
C734        C735   1.394   1_554  A
C735        H741   1.082       .  S
O736        C737   1.333       .  A
C737        C738   1.391   1_556  A
C738        H742   1.083       .  S
C743        C744   1.404       .  A
C743        O749   1.320       .  A
C744        C745   1.403       .  A
C744        H755   1.082       .  S
C745        C754   1.362       .  A
C746        C747   1.403       .  A
C746        O752   1.319       .  A
C747        C748   1.402       .  A
C747        H756   1.082       .  S
C748        C751   1.361       .  A
C750        C751   1.392   1_565  A
C751        H757   1.082       .  S
O752        C753   1.331   1_545  A
C754        H758   1.082       .  S
C759        C760   1.402       .  A
C759        O765   1.318       .  A
C760        C761   1.402       .  A
C760        H771   1.082       .  S
C761        C770   1.359       .  A
C762        C763   1.404       .  A
C762        O768   1.319       .  A
C763        C764   1.404       .  A
C763        H772   1.082       .  S
C764        C767   1.362       .  A
C766        C767   1.393       .  A
C767        H773   1.082       .  S
O768        C769   1.332       .  A
C770        H774   1.082       .  S
C775        C780   1.379       .  A
C775        C776   1.402       .  A
C775        O781   1.317       .  A
C776        C777   1.401       .  A
C776        H787   1.082       .  S
C777        C786   1.360       .  A
C777        C778   1.381       .  A
C778        C779   1.399       .  A
C778        O784   1.315       .  A
C779        C780   1.398       .  A
C779        H788   1.082       .  S
C780        C783   1.355       .  A
O781        C782   1.332       .  A
C782        C783   1.393       .  A
C783        H789   1.082       .  S
O784        C785   1.328       .  A
C785        C786   1.391       .  A
C786        H790   1.083       .  S
C791        C796   1.380       .  A
C791        C792   1.408       .  A
C791        O797   1.321       .  A
C792        C793   1.406       .  A
C792        H803   1.082       .  S
C793        C802   1.368       .  A
C793        C794   1.380       .  A
C794        C795   1.400       .  A
C794        O800   1.314       .  A
C795        C796   1.399       .  A
C795        H804   1.082       .  S
C796        C799   1.359       .  A
O797        C798   1.333       .  A
C798        C799   1.390       .  A
C799        H805   1.083       .  S
O800        C801   1.331       .  A
C801        C802   1.393       .  A
C802        H806   1.080       .  S
C807        C812   1.380       .  A
C807        C808   1.399       .  A
C807        O813   1.316       .  A
C808        C809   1.399       .  A
C808        H819   1.083       .  S
C809        C818   1.355       .  A
C809        C810   1.380       .  A
C810        C811   1.408       .  A
C810        O816   1.325       .  A
C811        C812   1.408       .  A
C811        H820   1.082       .  S
C812        C815   1.368       .  A
O813        C814   1.329       .  A
C814        C815   1.394       .  A
C815        H821   1.082       .  S
O816        C817   1.334       .  A
C817        C818   1.393       .  A
C818        H822   1.082       .  S
C823        C824   1.407       .  A
C823        C828   1.403       .  A
C823       C1075   1.475       .  S
C824        C825   1.408       .  A
C824        H829   1.083       .  S
C825        C826   1.407       .  A
C825       C1091   1.477       .  S
C826        C827   1.399       .  A
C826        H830   1.084       .  S
C827        C828   1.400       .  A
C827       C1056   1.481       .  S
C828        H831   1.083       .  S
Zn832       O837   2.031   1_556  S
Zn832       O841   2.030       .  S
Zn833       O838   2.029       .  S
Zn833       O840   2.016   1_556  S
Zn833       O836   1.960       .  S
Zn834       O842   2.015   1_455  S
Zn834       O845   2.021       .  S
Zn834       O836   1.956   1_455  S
Zn835       O843   2.002       .  S
Zn835       O846   2.024       .  S
O838        C850   1.273       .  A
O839        C851   1.276       .  A
O840        C849   1.274       .  A
O841        C851   1.276       .  A
O842        C850   1.274       .  A
O844        C853   1.273       .  A
O845        C852   1.275       .  A
O846        C853   1.273       .  A
O847        C854   1.272       .  A
O848        C854   1.275       .  A
C849       C1040   1.468       .  S
C850       C1072   1.473       .  S
C851       C1011   1.478       .  S
C853        C992   1.474       .  S
C854       C1088   1.470       .  S
C855        C856   1.410       .  A
C855        C860   1.403       .  A
C855       C1008   1.480       .  S
C856        C857   1.409       .  A
C856        H861   1.084   1_554  S
C857        C858   1.407       .  A
C857        C995   1.479       .  S
C858        C859   1.401       .  A
C858        H862   1.083       .  S
C859        C860   1.400       .  A
C859        C979   1.478       .  S
C860        H863   1.084       .  S
C864        C865   1.404       .  A
C864        C869   1.408       .  A
C864        C944   1.479       .  S
C865        H870   1.083       .  S
C867        C868   1.404       .  A
C867        H871   1.084       .  S
C868        C963   1.476       .  S
Zn873       O878   2.022       .  S
Zn873       O882   2.034       .  S
Zn873       O889   2.014       .  S
Zn873       O877   1.956       .  S
Zn874       O879   2.009       .  S
Zn874       O881   2.020       .  S
Zn874       O885   2.023       .  S
Zn874       O877   1.956       .  S
Zn875       O880   2.013       .  S
Zn875       O883   2.033       .  S
Zn875       O886   2.020       .  S
Zn875       O877   1.958       .  S
Zn876       O884   2.027       .  S
Zn876       O887   2.025       .  S
Zn876       O888   2.041       .  S
Zn876       O877   1.964       .  S
O878        C890   1.274       .  A
O879        C891   1.272       .  A
O880        C892   1.273       .  A
O881        C890   1.274       .  A
O882        C892   1.274       .  A
O883        C891   1.274       .  A
O884        C893   1.275       .  A
O885        C894   1.273       .  A
O886        C893   1.275       .  A
O887        C894   1.275       .  A
O888        C895   1.275       .  A
O889        C895   1.275       .  A
C890       C1059   1.470       .  S
C891        C915   1.471       .  S
C892        C947   1.472       .  S
C893        C976   1.472       .  S
C894        C960   1.473       .  S
C895        C928   1.475       .  S
C896        C897   1.406       .  A
C896        C931   1.479       .  S
C897        H902   1.083       .  S
C898        C899   1.397       .  A
C898       C1027   1.479       .  S
C899        C900   1.405       .  A
C899        H903   1.084       .  S
C900        C912   1.475       .  S
C905        C910   1.381       .  A
C905        C906   1.408       .  A
C905        O911   1.323       .  A
C906        C907   1.407       .  A
C906        H917   1.082       .  S
C907        C916   1.367       .  A
C907        C908   1.381       .  A
C908        C909   1.399       .  A
C908        O914   1.315       .  A
C909        C910   1.399       .  A
C909        H918   1.083       .  S
C910        C913   1.356       .  A
O911        C912   1.333       .  A
C912        C913   1.390       .  A
C913        H919   1.083       .  S
O914        C915   1.329       .  A
C915        C916   1.394       .  A
C916        H920   1.082       .  S
C921        C926   1.380       .  A
C921        C922   1.410       .  A
C921        O927   1.324       .  A
C922        C923   1.409       .  A
C922        H933   1.082       .  S
C923        C932   1.369       .  A
C923        C924   1.380       .  A
C924        C925   1.399       .  A
C924        O930   1.314       .  A
C925        C926   1.398       .  A
C925        H934   1.082       .  S
C926        C929   1.357       .  A
O927        C928   1.335       .  A
C928        C929   1.390       .  A
C929        H935   1.083       .  S
O930        C931   1.330       .  A
C931        C932   1.396       .  A
C932        H936   1.082       .  S
C937        C942   1.380       .  A
C937        C938   1.408       .  A
C937        O943   1.323       .  A
C938        C939   1.407       .  A
C938        H949   1.082       .  S
C939        C948   1.367       .  A
C939        C940   1.380       .  A
C940        C941   1.399       .  A
C940        O946   1.316       .  A
C941        C942   1.399       .  A
C941        H950   1.082       .  S
C942        C945   1.356       .  A
O943        C944   1.333       .  A
C944        C945   1.392       .  A
C945        H951   1.083       .  S
O946        C947   1.329       .  A
C947        C948   1.394       .  A
C948        H952   1.082       .  S
C953        C958   1.380       .  A
C953        C954   1.407       .  A
C953        O959   1.321       .  A
C954        C955   1.406       .  A
C954        H965   1.082       .  S
C955        C964   1.366       .  A
C955        C956   1.380       .  A
C956        C957   1.401       .  A
C956        O962   1.316       .  A
C957        C958   1.400       .  A
C957        H966   1.082       .  S
C958        C961   1.360       .  A
O959        C960   1.333       .  A
C960        C961   1.390       .  A
C961        H967   1.083       .  S
O962        C963   1.330       .  A
C963        C964   1.393       .  A
C964        H968   1.080       .  S
C969        C974   1.380       .  A
C969        C970   1.406       .  A
C969        O975   1.321       .  A
C970        C971   1.405       .  A
C970        H981   1.082       .  S
C971        C980   1.365       .  A
C971        C972   1.380       .  A
C972        C973   1.401       .  A
C972        O978   1.316       .  A
C973        C974   1.400       .  A
C973        H982   1.082       .  S
C974        C977   1.359       .  A
O975        C976   1.332       .  A
C976        C977   1.390       .  A
C977        H983   1.083       .  S
O978        C979   1.330       .  A
C979        C980   1.394       .  A
C980        H984   1.082       .  S
C985        C990   1.380       .  A
C985        C986   1.402   1_556  A
C985        O991   1.319       .  A
C986        C987   1.402       .  A
C986        H997   1.082       .  S
C987        C996   1.359       .  A
C987        C988   1.380   1_554  A
C988        C989   1.406       .  A
C988        O994   1.322       .  A
C989        C990   1.406       .  A
C989        H998   1.082       .  S
C990        C993   1.364       .  A
O991        C992   1.331       .  A
C992        C993   1.393       .  A
C993        H999   1.082       .  S
O994        C995   1.332   1_556  A
C995        C996   1.392       .  A
C996       H1000   1.083       .  S
C1001      C1006   1.380   1_554  A
C1001      C1002   1.403       .  A
C1001      O1007   1.318       .  A
C1002      C1003   1.402   1_554  A
C1002      H1013   1.082       .  S
C1003      C1012   1.362       .  A
C1003      C1004   1.380       .  A
C1004      C1005   1.408       .  A
C1004      O1010   1.323       .  A
C1005      C1006   1.407       .  A
C1005      H1014   1.083       .  S
C1006      C1009   1.366       .  A
O1007      C1008   1.331       .  A
C1008      C1009   1.392   1_554  A
C1009      H1015   1.080       .  S
O1010      C1011   1.334       .  A
C1011      C1012   1.392       .  A
C1012      H1016   1.083   1_556  S
C1017      C1018   1.400   1_445  A
C1017      O1023   1.315   1_445  A
C1018      C1019   1.399   1_655  A
C1018      H1029   1.082       .  S
C1019      C1028   1.359   1_455  A
C1020      C1021   1.406       .  A
C1020      O1026   1.320       .  A
C1021      C1022   1.405       .  A
C1021      H1030   1.082       .  S
C1022      C1025   1.366       .  A
C1024      C1025   1.393       .  A
C1025      H1031   1.082       .  S
O1026      C1027   1.333       .  A
C1028      H1032   1.082       .  S
C1033      C1034   1.402       .  A
C1033      O1039   1.318       .  A
C1034      C1035   1.402       .  A
C1034      H1045   1.082       .  S
C1035      C1044   1.358       .  A
C1036      C1037   1.402       .  A
C1036      O1042   1.319       .  A
C1037      C1038   1.402       .  A
C1037      H1046   1.082       .  S
C1038      C1041   1.360       .  A
C1040      C1041   1.391       .  A
C1041      H1047   1.082       .  S
O1042      C1043   1.331       .  A
C1044      H1048   1.082       .  S
C1049      C1054   1.379       .  A
C1049      C1050   1.403       .  A
C1049      O1055   1.319       .  A
C1050      C1051   1.403       .  A
C1050      H1061   1.082       .  S
C1051      C1060   1.361       .  A
C1051      C1052   1.380       .  A
C1052      C1053   1.402       .  A
C1052      O1058   1.319       .  A
C1053      C1054   1.402       .  A
C1053      H1062   1.082       .  S
C1054      C1057   1.360       .  A
O1055      C1056   1.332       .  A
C1056      C1057   1.394       .  A
C1057      H1063   1.082       .  S
O1058      C1059   1.331       .  A
C1059      C1060   1.392       .  A
C1060      H1064   1.082       .  S
C1065      C1070   1.380       .  A
C1065      C1066   1.410       .  A
C1065      O1071   1.324       .  A
C1066      C1067   1.409       .  A
C1066      H1077   1.082       .  S
C1067      C1076   1.371       .  A
C1067      C1068   1.381       .  A
C1068      C1069   1.398       .  A
C1068      O1074   1.312       .  A
C1069      C1070   1.396       .  A
C1069      H1078   1.083       .  S
C1070      C1073   1.356       .  A
O1071      C1072   1.335       .  A
C1072      C1073   1.388       .  A
C1073      H1079   1.083       .  S
O1074      C1075   1.328       .  A
C1075      C1076   1.395       .  A
C1076      H1080   1.083       .  S
C1081      C1086   1.381       .  A
C1081      C1082   1.398       .  A
C1081      O1087   1.314       .  A
C1082      C1083   1.397       .  A
C1082      H1093   1.082       .  S
C1083      C1092   1.355       .  A
C1083      C1084   1.380       .  A
C1084      C1085   1.408       .  A
C1084      O1090   1.323       .  A
C1085      C1086   1.408       .  A
C1085      H1094   1.082       .  S
C1086      C1089   1.368       .  A
O1087      C1088   1.328       .  A
C1088      C1089   1.394       .  A
C1089      H1095   1.082       .  S
O1090      C1091   1.333       .  A
C1091      C1092   1.390       .  A
C1092      H1096   1.083       .  S
