geometry optimzed in LAMMPS
_audit_creation_date              2020-12-01 
_audit_creation_method            'lammps2cif' 
_symmetry_space_group_name_H-M    'P1' 
_symmetry_Int_Tables_number       1 
_symmetry_cell_setting            triclinic 
loop_ 
_symmetry_equiv_pos_as_xyz 
  x,y,z 
_cell_length_a                    51.81047076 
_cell_length_b                    51.81026874140884 
_cell_length_c                    51.810374020516 
_cell_angle_alpha                 89.99977294268318 
_cell_angle_beta                  90.00011762082835 
_cell_angle_gamma                 89.99957746655309 
loop_ 
_atom_site_label 
_atom_site_type_symbol 
_atom_site_fract_x 
_atom_site_fract_y 
_atom_site_fract_z 
_atom_site_charge 
C1          C  0.71832520  0.68517715  0.71832166     0.05000
C2          C  0.69624486  0.69624650  0.72935636    -0.11100
C3          C  0.68517684  0.71832746  0.71832120     0.02500
C4          C  0.69624560  0.72936183  0.69624044    -0.09700
C5          C  0.71832588  0.71832613  0.68517198     0.05000
C6          C  0.72936031  0.69624524  0.69624089    -0.09100
H7          H  0.68761402  0.68761623  0.74636257     0.10600
H8          H  0.68761526  0.74636821  0.68760949     0.08100
H9          H  0.74636616  0.68761397  0.68761036     0.08000
C10         C  0.71832004  0.27128281  0.68518587     0.05000
C11         C  0.69623968  0.26024850  0.69625535    -0.11100
C12         C  0.68517139  0.27128477  0.71833538     0.02500
C13         C  0.69623979  0.29336610  0.72936870    -0.09700
C14         C  0.71832017  0.30443394  0.71833291     0.05000
C15         C  0.72935489  0.29336407  0.69625293    -0.09100
H16         H  0.68760914  0.24324198  0.68762595     0.10600
H17         H  0.68760932  0.30199775  0.74637436     0.08100
H18         H  0.74636095  0.30199429  0.68762152     0.08000
C19         C  0.27128240  0.27128706  0.68518838     0.05000
C20         C  0.26024806  0.29336831  0.69625628    -0.11100
C21         C  0.27128377  0.30443777  0.71833592     0.02500
C22         C  0.29336473  0.29336946  0.72937062    -0.09700
C23         C  0.30443271  0.27128813  0.71833649     0.05000
C24         C  0.29336333  0.26025231  0.69625680    -0.09100
H25         H  0.24324141  0.30199902  0.68762558     0.10600
H26         H  0.30199598  0.30200079  0.74637587     0.08100
H27         H  0.30199358  0.24324572  0.68762668     0.08000
C28         C  0.27128687  0.68517862  0.71832717     0.05000
C29         C  0.29336787  0.69624650  0.72936174    -0.11100
C30         C  0.30443680  0.71832675  0.71832650     0.02500
C31         C  0.29336837  0.72936184  0.69624585    -0.09700
C32         C  0.27128744  0.71832754  0.68517757     0.05000
C33         C  0.26025208  0.69624735  0.69624650    -0.09100
H34         H  0.30199839  0.68761574  0.74636777     0.10600
H35         H  0.30199942  0.74636770  0.68761487     0.08100
H36         H  0.24324569  0.68761716  0.68761606     0.08000
C37         C  0.30442927  0.71831625  0.27128616     0.05000
C38         C  0.29336085  0.72935145  0.29336674    -0.11100
C39         C  0.27128002  0.71831713  0.30443537     0.02500
C40         C  0.26024485  0.69623662  0.29336692    -0.09700
C41         C  0.27127949  0.68516764  0.27128636     0.05000
C42         C  0.29336029  0.69623576  0.26025141    -0.09100
H43         H  0.30199176  0.74635751  0.30199730     0.10600
H44         H  0.24323847  0.68760633  0.30199766     0.08100
H45         H  0.30199077  0.68760484  0.24324533     0.08000
C46         C  0.71832546  0.68516546  0.27128312     0.05000
C47         C  0.72936120  0.69623515  0.29336284    -0.11100
C48         C  0.71832676  0.71831654  0.30443075     0.02500
C49         C  0.69624563  0.72935094  0.29336239    -0.09700
C50         C  0.68517610  0.71831508  0.27128270     0.05000
C51         C  0.69624439  0.69623378  0.26024851    -0.09100
H52         H  0.74636764  0.68760483  0.30199328     0.10600
H53         H  0.68761516  0.74635782  0.30199263     0.10500
H54         H  0.68761304  0.68760231  0.24324299     0.08000
C55         C  0.71831995  0.30442167  0.27129131     0.05000
C56         C  0.69623932  0.29335320  0.26025628    -0.11100
C57         C  0.68516959  0.27127358  0.27129219     0.02500
C58         C  0.69623700  0.26023962  0.29337399    -0.09700
C59         C  0.71831762  0.27127427  0.30444272     0.05000
C60         C  0.72935360  0.29335388  0.29337310    -0.09100
H61         H  0.68760967  0.30198309  0.24324938     0.10600
H62         H  0.68760549  0.24323418  0.30200543     0.08100
H63         H  0.74635990  0.30198440  0.30200390     0.08000
N64         N  0.78987612  0.54764607  0.78987923    -0.25400
N65         N  0.77431102  0.53471250  0.77431552    -0.33300
C66         C  0.76034687  0.55155850  0.76035104     0.02900
C67         C  0.76752676  0.57616260  0.76752926     0.09000
C68         C  0.78623784  0.57310819  0.78623968    -0.04100
H69         H  0.74606241  0.54624696  0.74606729     0.09600
H70         H  0.79645035  0.58819752  0.79645072     0.10800
Cu71       Cu  0.77273552  0.49480584  0.77274172     0.44200
Cu72       Cu  0.81524527  0.52992493  0.81524789     0.42000
Cu73       Cu  0.81524388  0.45968594  0.81524871     0.43900
N74         N  0.77430959  0.45489916  0.77431671    -0.32800
N75         N  0.78987427  0.44196538  0.78988095    -0.27000
C76         C  0.78623519  0.41650337  0.78624262    -0.03100
C77         C  0.76752408  0.41344918  0.76753242     0.09100
C78         C  0.76034487  0.43805331  0.76035299     0.02900
H79         H  0.79644731  0.40141375  0.79645454     0.10500
H80         H  0.74606060  0.44336491  0.74606922     0.09600
N81         N  0.83871916  0.48203202  0.83872231    -0.34200
N82         N  0.83871967  0.50757760  0.83872208    -0.26400
C83         C  0.85607769  0.51604247  0.85607880    -0.01700
C84         C  0.86742420  0.49480409  0.86742518     0.07000
C85         C  0.85607681  0.47356624  0.85607915     0.05000
H86         H  0.86009476  0.53614248  0.86009496     0.10200
H87         H  0.86009298  0.45346617  0.86009558     0.09000
N88         N  0.19973143  0.54765147  0.78988455    -0.25400
N89         N  0.21529548  0.53471728  0.77432024    -0.33300
C90         C  0.22925962  0.55156270  0.76035531     0.02900
C91         C  0.22208074  0.57616706  0.76753400     0.09000
C92         C  0.20337037  0.57311344  0.78624506    -0.04100
H93         H  0.24354328  0.54625068  0.74607148     0.09600
H94         H  0.19315893  0.58820319  0.79645675     0.10800
Cu95       Cu  0.21687038  0.49481062  0.77274688     0.44200
Cu96       Cu  0.17436317  0.52993131  0.81525425     0.42000
Cu97       Cu  0.17436488  0.45969188  0.81525627     0.43900
N98         N  0.21529660  0.45490399  0.77432212    -0.32800
N99         N  0.19973291  0.44197054  0.78988729    -0.27000
C100        C  0.20337175  0.41650841  0.78624882    -0.03100
C101        C  0.22208178  0.41345389  0.76753755     0.09100
C102        C  0.22926050  0.43805790  0.76035765     0.02900
H103        H  0.19316041  0.40141921  0.79646120     0.10500
H104        H  0.24354384  0.44336927  0.74607308     0.09600
N105        N  0.15089020  0.48203891  0.83872973    -0.34200
N106        N  0.15088952  0.50758453  0.83872915    -0.26400
C107        C  0.13353167  0.51604977  0.85608588    -0.01700
C108        C  0.12218545  0.49481160  0.86743260     0.07000
C109        C  0.13353280  0.47357355  0.85608675     0.05000
H110        H  0.12951437  0.53614997  0.86010169     0.10200
H111        H  0.12951660  0.45347335  0.86010337     0.09000
N112        N  0.78987689  0.44194881  0.19973212    -0.25400
N113        N  0.77431357  0.45488320  0.21529701    -0.33300
C114        C  0.76034959  0.43803778  0.22926226     0.02900
C115        C  0.76752782  0.41343318  0.22208325     0.09000
C116        C  0.78623766  0.41648683  0.20337158    -0.04100
H117        H  0.74606642  0.44334993  0.24354659     0.09600
H118        H  0.79644862  0.40139695  0.19315940     0.10800
Cu119      Cu  0.77273983  0.49479050  0.21687046     0.44200
Cu120      Cu  0.81524458  0.45966917  0.17436176     0.42000
Cu121      Cu  0.81524351  0.52990991  0.17436040     0.43900
N122        N  0.77431300  0.53469778  0.21529573    -0.32800
N123        N  0.78987609  0.54763150  0.19973019    -0.27000
C124        C  0.78623707  0.57309367  0.20336889    -0.03100
C125        C  0.76752753  0.57614811  0.22208079     0.09100
C126        C  0.76034932  0.55154380  0.22926069     0.02900
H127        H  0.79644794  0.58818293  0.19315629     0.10500
H128        H  0.74606644  0.54623225  0.24354557     0.09600
N129        N  0.83871714  0.50756217  0.15088615    -0.34200
N130        N  0.83871760  0.48201651  0.15088657    -0.26400
C131        C  0.85607467  0.47355122  0.13352905    -0.01700
C132        C  0.86742057  0.49478935  0.12218191     0.07000
C133        C  0.85607387  0.51602741  0.13352839     0.05000
H134        H  0.86009155  0.45345107  0.12951289     0.10200
H135        H  0.86009001  0.53612767  0.12951159     0.09000
N136        N  0.19972514  0.44195450  0.19973432    -0.25400
N137        N  0.21528935  0.45488854  0.21529853    -0.33300
C138        C  0.22925381  0.43804284  0.22926321     0.02900
C139        C  0.22207504  0.41343841  0.22208459     0.09000
C140        C  0.20336431  0.41649244  0.20337371    -0.04100
H141        H  0.24353757  0.44335473  0.24354723     0.09600
H142        H  0.19315254  0.40140276  0.19316220     0.10800
Cu143      Cu  0.21686298  0.49479569  0.21687254     0.44200
Cu144      Cu  0.17435588  0.45967537  0.17436542     0.42000
Cu145      Cu  0.17435515  0.52991576  0.17436635     0.43900
N146        N  0.21528889  0.53470286  0.21529864    -0.32800
N147        N  0.19972423  0.54763682  0.19973458    -0.27000
C148        C  0.20336318  0.57309890  0.20337336    -0.03100
C149        C  0.22207429  0.57615301  0.22208374     0.09100
C150        C  0.22925350  0.55154865  0.22926269     0.02900
H151        H  0.19315123  0.58818840  0.19316175     0.10500
H152        H  0.24353776  0.54623687  0.24354640     0.09600
N153        N  0.15088113  0.50756883  0.15089204    -0.34200
N154        N  0.15088139  0.48202318  0.15089159    -0.26400
C155        C  0.13352433  0.47355830  0.13353397    -0.01700
C156        C  0.12217763  0.49479659  0.12218765     0.07000
C157        C  0.13352389  0.51603448  0.13353475     0.05000
H158        H  0.12950809  0.45345794  0.12951691     0.10200
H159        H  0.12950736  0.53613465  0.12951855     0.09000
O160        O  0.02222363  0.47334784  0.02222721    -0.71100
O161        O  0.96738133  0.47335063  0.96738087    -0.72000
O162        O  0.02222548  0.47335253  0.96738291    -0.60700
O163        O  0.96737939  0.47334604  0.02222511    -0.69100
O164        O  0.96737771  0.51624905  0.02222857    -0.68600
O165        O  0.02222382  0.51625555  0.96738634    -0.59900
O166        O  0.96737961  0.51625364  0.96738416    -0.72400
O167        O  0.02222194  0.51625085  0.02223053    -0.71200
Cu168      Cu  0.99480251  0.47183681  0.99480391     1.04600
Cu169      Cu  0.99480069  0.51776473  0.99480753     1.04300
C170        C  0.03079214  0.49479893  0.03079873     0.95100
C171        C  0.95881121  0.49480253  0.95881256     0.94300
C172        C  0.03079454  0.49480503  0.95881537     0.86400
C173        C  0.95880868  0.49479654  0.03079613     0.92700
N174        N  0.54764740  0.78988272  0.78987515    -0.25400
N175        N  0.53471392  0.77431863  0.77431042    -0.33300
C176        C  0.55155986  0.76035503  0.76034547     0.02900
C177        C  0.57616384  0.76753437  0.76752455     0.09000
C178        C  0.57310942  0.78624440  0.78623588    -0.04100
H179        H  0.54624848  0.74607140  0.74606153     0.09600
H180        H  0.58819868  0.79645589  0.79644806     0.10800
Cu181      Cu  0.49480746  0.77274294  0.77273655     0.44200
Cu182      Cu  0.52992643  0.81524989  0.81524555     0.42000
Cu183      Cu  0.45968784  0.81524650  0.81524848     0.43900
N184        N  0.45490097  0.77431579  0.77431295    -0.32800
N185        N  0.44196731  0.78987862  0.78987890    -0.27000
C186        C  0.41650534  0.78623897  0.78624102    -0.03100
C187        C  0.41345115  0.76752936  0.76752931     0.09100
C188        C  0.43805518  0.76035166  0.76034853     0.02900
H189        H  0.40141599  0.79644952  0.79645414     0.10500
H190        H  0.44336670  0.74606902  0.74606354     0.09600
N191        N  0.48203402  0.83872028  0.83872350    -0.34200
N192        N  0.50757953  0.83872154  0.83872244    -0.26400
C193        C  0.51604455  0.85607825  0.85608033    -0.01700
C194        C  0.49480637  0.86742312  0.86742839     0.07000
C195        C  0.47356849  0.85607616  0.85608207     0.05000
H196        H  0.53614470  0.86009572  0.86009605     0.10200
H197        H  0.45346830  0.86009160  0.86009943     0.09000
N198        N  0.54764275  0.19973398  0.78989288    -0.25400
N199        N  0.53470934  0.21529943  0.77432908    -0.33300
C200        C  0.55155533  0.22926355  0.76036496     0.02900
C201        C  0.57615922  0.22208322  0.76754361     0.09000
C202        C  0.57310474  0.20337198  0.78625380    -0.04100
H203        H  0.54624394  0.24354819  0.74608128     0.09600
H204        H  0.58819410  0.19315904  0.79646511     0.10800
Cu205      Cu  0.49480298  0.21687534  0.77275469     0.44200
Cu206      Cu  0.52992169  0.17436456  0.81526078     0.42000
Cu207      Cu  0.45968314  0.17436534  0.81526039     0.43900
N208        N  0.45489656  0.21530043  0.77432855    -0.32800
N209        N  0.44196280  0.19973532  0.78989209    -0.27000
C210        C  0.41650083  0.20337398  0.78625255    -0.03100
C211        C  0.41344681  0.22208534  0.76754229     0.09100
C212        C  0.43805089  0.22926503  0.76036412     0.02900
H213        H  0.40141156  0.19316165  0.79646335     0.10500
H214        H  0.44336260  0.24354943  0.74608068     0.09600
N215        N  0.48202954  0.15088908  0.83873345    -0.34200
N216        N  0.50757506  0.15088882  0.83873359    -0.26400
C217        C  0.51604023  0.13353028  0.85608983    -0.01700
C218        C  0.49480217  0.12218312  0.86743561     0.07000
C219        C  0.47356419  0.13353069  0.85608962     0.05000
H220        H  0.53614053  0.12951335  0.86010626     0.10200
H221        H  0.45346410  0.12951418  0.86010580     0.09000
N222        N  0.44196091  0.78986863  0.19973374    -0.25400
N223        N  0.45489484  0.77430372  0.21529770    -0.33300
C224        C  0.43804910  0.76033927  0.22926199     0.02900
C225        C  0.41344483  0.76751880  0.22208331     0.09000
C226        C  0.41649899  0.78622993  0.20337289    -0.04100
H227        H  0.44336086  0.74605486  0.24354565     0.09600
H228        H  0.40140924  0.79644232  0.19316123     0.10800
Cu229      Cu  0.49480182  0.77272888  0.21687134     0.44200
Cu230      Cu  0.45968143  0.81523795  0.17436506     0.42000
Cu231      Cu  0.52992063  0.81523721  0.17436367     0.43900
N232        N  0.53470874  0.77430308  0.21529631    -0.32800
N233        N  0.54764210  0.78986773  0.19973189    -0.27000
C234        C  0.57310418  0.78622883  0.20337043    -0.03100
C235        C  0.57615900  0.76751782  0.22208095     0.09100
C236        C  0.55155498  0.76033857  0.22926029     0.02900
H237        H  0.58819341  0.79644097  0.19315849     0.10500
H238        H  0.54624374  0.74605446  0.24354420     0.09600
N239        N  0.50757328  0.83871265  0.15089048    -0.34200
N240        N  0.48202776  0.83871297  0.15089098    -0.26400
C241        C  0.47356221  0.85607073  0.13353407    -0.01700
C242        C  0.49480007  0.86741727  0.12218721     0.07000
C243        C  0.51603824  0.85607018  0.13353325     0.05000
H244        H  0.45346208  0.86008733  0.12951784     0.10200
H245        H  0.53613833  0.86008631  0.12951623     0.09000
N246        N  0.44195723  0.19971378  0.19974636    -0.25400
N247        N  0.45489124  0.21527801  0.21531058    -0.33300
C248        C  0.43804561  0.22924240  0.22927518     0.02900
C249        C  0.41344129  0.22206352  0.22209657     0.09000
C250        C  0.41649529  0.20335283  0.20338570    -0.04100
H251        H  0.44335756  0.24352678  0.24355891     0.09600
H252        H  0.40140571  0.19314147  0.19317377     0.10800
Cu253      Cu  0.49479826  0.21685281  0.21688333     0.44200
Cu254      Cu  0.45967794  0.17434599  0.17437623     0.42000
Cu255      Cu  0.52991788  0.17434906  0.17437236     0.43900
N256        N  0.53470524  0.21528070  0.21530679    -0.32800
N257        N  0.54763897  0.19971765  0.19974106    -0.27000
C258        C  0.57310100  0.20335787  0.20337843    -0.03100
C259        C  0.57615530  0.22206812  0.22208962     0.09100
C260        C  0.55155113  0.22924550  0.22927051     0.02900
H261        H  0.58819028  0.19314735  0.19316536     0.10500
H262        H  0.54623952  0.24352865  0.24355534     0.09600
N263        N  0.50757060  0.15087533  0.15089815    -0.34200
N264        N  0.48202507  0.15087414  0.15089958    -0.26400
C265        C  0.47355977  0.13351754  0.13354169    -0.01700
C266        C  0.49479773  0.12217269  0.12219325     0.07000
C267        C  0.51603582  0.13351952  0.13353931     0.05000
H268        H  0.45345961  0.12950031  0.12952607     0.10200
H269        H  0.53613570  0.12950424  0.12952150     0.09000
O270        O  0.47334784  0.02221947  0.02223240    -0.71100
O271        O  0.47335096  0.96737712  0.96738630    -0.72000
O272        O  0.47334942  0.96737503  0.02223056    -0.60700
O273        O  0.47334923  0.02222154  0.96738805    -0.69100
O274        O  0.51625207  0.02222245  0.96738924    -0.68600
O275        O  0.51625226  0.96737601  0.02223185    -0.59900
O276        O  0.51625381  0.96737807  0.96738756    -0.72400
O277        O  0.51625069  0.02222044  0.02223350    -0.71200
Cu278      Cu  0.47183691  0.99479826  0.99480929     1.04600
Cu279      Cu  0.51776465  0.99479929  0.99481058     1.04300
C280        C  0.49479881  0.03078926  0.03080280     0.95100
C281        C  0.49480287  0.95880828  0.95881709     0.94300
C282        C  0.49480085  0.95880556  0.03080051     0.86400
C283        C  0.49480062  0.03079191  0.95881930     0.92700
C284        C  0.27127913  0.30442501  0.27129424     0.05000
C285        C  0.29335924  0.29335457  0.26025997    -0.11100
C286        C  0.30442741  0.27127432  0.27129658     0.02500
C287        C  0.29335872  0.26024158  0.29337828    -0.09700
C288        C  0.27127852  0.27127811  0.30444617     0.05000
C289        C  0.26024423  0.29335845  0.29337595    -0.09100
H290        H  0.30198993  0.30198360  0.24325293     0.10600
H291        H  0.30198893  0.24323579  0.30201022     0.08100
H292        H  0.24323859  0.30199033  0.30200603     0.08000
N293        N  0.78987681  0.78987884  0.54764022    -0.25400
N294        N  0.77431373  0.77431376  0.53470596    -0.33300
C295        C  0.76034970  0.76034866  0.55155143     0.02900
C296        C  0.76752775  0.76752810  0.57615584     0.09000
C297        C  0.78623744  0.78623972  0.57310212    -0.04100
H298        H  0.74606685  0.74606412  0.54623946     0.09600
H299        H  0.79644833  0.79645207  0.58819190     0.10800
Cu300      Cu  0.77274092  0.77273971  0.49479894     0.44200
Cu301      Cu  0.81524467  0.81524873  0.52992026     0.42000
Cu302      Cu  0.81524739  0.81524862  0.45968011     0.43900
N303        N  0.77431619  0.77431377  0.45489200    -0.32800
N304        N  0.78988020  0.78987860  0.44195841    -0.27000
C305        C  0.78624214  0.78623911  0.41649630    -0.03100
C306        C  0.76753233  0.76752753  0.41344180     0.09100
C307        C  0.76035298  0.76034862  0.43804599     0.02900
H308        H  0.79645394  0.79645111  0.40140692     0.10500
H309        H  0.74606951  0.74606413  0.44335753     0.09600
N310        N  0.83871985  0.83872349  0.48202847    -0.34200
N311        N  0.83871873  0.83872341  0.50757406    -0.26400
C312        C  0.85607538  0.85608073  0.51604021    -0.01700
C313        C  0.86742275  0.86742747  0.49480275     0.07000
C314        C  0.85607730  0.85608096  0.47356410     0.05000
H315        H  0.86009108  0.86009695  0.53614061     0.10200
H316        H  0.86009487  0.86009744  0.45346414     0.09000
N317        N  0.19973309  0.78987807  0.54764586    -0.25400
N318        N  0.21529708  0.77431339  0.53471199    -0.33300
C319        C  0.22926219  0.76034947  0.55155772     0.02900
C320        C  0.22208396  0.76752927  0.57616190     0.09000
C321        C  0.20337299  0.78623985  0.57310783    -0.04100
H322        H  0.24354575  0.74606534  0.54624606     0.09600
H323        H  0.19316150  0.79645187  0.58819735     0.10800
Cu324      Cu  0.21686966  0.77273747  0.49480527     0.44200
Cu325      Cu  0.17436285  0.81524603  0.52992572     0.42000
Cu326      Cu  0.17435859  0.81524305  0.45968679     0.43900
N327        N  0.21529273  0.77431049  0.45489858    -0.32800
N328        N  0.19972711  0.78987410  0.44196522    -0.27000
C329        C  0.20336472  0.78623458  0.41650307    -0.03100
C330        C  0.22207592  0.76752422  0.41344842     0.09100
C331        C  0.22925661  0.76034603  0.43805244     0.02900
H332        H  0.19315189  0.79644569  0.40141399     0.10500
H333        H  0.24354132  0.74606278  0.44336372     0.09600
N334        N  0.15088502  0.83871811  0.48203393    -0.34200
N335        N  0.15088676  0.83871917  0.50757948    -0.26400
C336        C  0.13352986  0.85607672  0.51604520    -0.01700
C337        C  0.12218166  0.86742239  0.49480741     0.07000
C338        C  0.13352691  0.85607499  0.47356908     0.05000
H339        H  0.12951480  0.86009399  0.53614532     0.10200
H340        H  0.12950900  0.86009073  0.45346890     0.09000
N341        N  0.78987299  0.19972774  0.54765660    -0.25400
N342        N  0.77430643  0.21528987  0.53472252    -0.33300
C343        C  0.76034130  0.22925372  0.55156808     0.02900
C344        C  0.76752219  0.22207664  0.57617234     0.09000
C345        C  0.78623476  0.20336763  0.57311852    -0.04100
H346        H  0.74605558  0.24353611  0.54625616     0.09600
H347        H  0.79644827  0.19315770  0.58820813     0.10800
Cu348      Cu  0.77273044  0.21686223  0.49481578     0.44200
Cu349      Cu  0.81524387  0.17436044  0.52993672     0.42000
Cu350      Cu  0.81524194  0.17435694  0.45969799     0.43900
N351        N  0.77430493  0.21528656  0.45490911    -0.32800
N352        N  0.78987079  0.19972311  0.44197602    -0.27000
C353        C  0.78623196  0.20336126  0.41651381    -0.03100
C354        C  0.76751967  0.22207053  0.41345885     0.09100
C355        C  0.76033969  0.22924953  0.43806273     0.02900
H356        H  0.79644495  0.19315027  0.40142495     0.10500
H357        H  0.74605467  0.24353285  0.44337384     0.09600
N358        N  0.83871870  0.15088517  0.48204538    -0.34200
N359        N  0.83871941  0.15088649  0.50759094    -0.26400
C360        C  0.85607797  0.13353054  0.51605679    -0.01700
C361        C  0.86742465  0.12218344  0.49481903     0.07000
C362        C  0.85607678  0.13352834  0.47358067     0.05000
H363        H  0.86009508  0.12951520  0.53615692     0.10200
H364        H  0.86009285  0.12951081  0.45348035     0.09000
N365        N  0.19972643  0.19973119  0.54766091    -0.25400
N366        N  0.21528965  0.21529586  0.53472630    -0.33300
C367        C  0.22925404  0.22926101  0.55157139     0.02900
C368        C  0.22207605  0.22208206  0.57617596     0.09000
C369        C  0.20336605  0.20337066  0.57312274    -0.04100
H370        H  0.24353704  0.24354506  0.54625908     0.09600
H371        H  0.19315527  0.19315868  0.58821272     0.10800
Cu372      Cu  0.21686269  0.21686945  0.49481937     0.44200
Cu373      Cu  0.17435833  0.17436095  0.52994152     0.42000
Cu374      Cu  0.17435780  0.17435929  0.45970150     0.43900
N375        N  0.21528854  0.21529402  0.45491254    -0.32800
N376        N  0.19972508  0.19972852  0.44197936    -0.27000
C377        C  0.20336387  0.20336661  0.41651713    -0.03100
C378        C  0.22207366  0.22207810  0.41346227     0.09100
C379        C  0.22925225  0.22925839  0.43806621     0.02900
H380        H  0.19315291  0.19315392  0.40142836     0.10500
H381        H  0.24353539  0.24354299  0.44337732     0.09600
N382        N  0.15088518  0.15088467  0.48204952    -0.34200
N383        N  0.15088530  0.15088526  0.50759511    -0.26400
C384        C  0.13352880  0.13352757  0.51606088    -0.01700
C385        C  0.12218265  0.12218013  0.49482317     0.07000
C386        C  0.13352860  0.13352660  0.47358476     0.05000
H387        H  0.12951238  0.12951149  0.53616135     0.10200
H388        H  0.12951202  0.12950968  0.45348480     0.09000
O389        O  0.02222563  0.96738238  0.47336277    -0.71100
O390        O  0.96738224  0.02222800  0.47336625    -0.72000
O391        O  0.02222632  0.02222665  0.47336767    -0.60700
O392        O  0.96738147  0.96738369  0.47336136    -0.69100
O393        O  0.96738038  0.96737968  0.51626429    -0.68600
O394        O  0.02222541  0.02222276  0.51627061    -0.59900
O395        O  0.96738117  0.02222414  0.51626918    -0.72400
O396        O  0.02222465  0.96737831  0.51626569    -0.71200
Cu397      Cu  0.99480395  0.99480532  0.47185209     1.04600
Cu398      Cu  0.99480286  0.99480108  0.51777992     1.04300
C399        C  0.03079464  0.95881055  0.49481365     0.95100
C400        C  0.95881226  0.03079591  0.49481821     0.94300
C401        C  0.03079557  0.03079408  0.49482007     0.86400
C402        C  0.95881123  0.95881228  0.49481181     0.92700
C403        C  0.10257370  0.10257063  0.49482362    -0.16600
C404        C  0.08611965  0.08611657  0.49482358     0.07400
C405        C  0.06684686  0.06684413  0.49482308     0.09300
C406        C  0.05038925  0.05038702  0.49482210    -0.17500
C407        C  0.88703472  0.10257460  0.49481962    -0.16600
C408        C  0.90348921  0.08612064  0.49481980     0.07400
C409        C  0.92276198  0.06684774  0.49481968     0.09300
C410        C  0.93921920  0.05038991  0.49481926    -0.17500
C411        C  0.10257214  0.88703177  0.49480808    -0.16600
C412        C  0.08611793  0.90348601  0.49480917     0.07400
C413        C  0.06684521  0.92275897  0.49481082     0.09300
C414        C  0.05038787  0.93921669  0.49481227    -0.17500
C415        C  0.88703230  0.88703642  0.49480391    -0.16600
C416        C  0.90348672  0.90349013  0.49480537     0.07400
C417        C  0.92275981  0.92276231  0.49480746     0.09300
C418        C  0.93921755  0.93921931  0.49480946    -0.17500
C419        C  0.26020432  0.26020598  0.32742325    -0.16600
C420        C  0.25113834  0.25114118  0.34685399     0.07400
C421        C  0.24074901  0.24075274  0.36981710     0.09300
C422        C  0.23209050  0.23209467  0.38961039    -0.17500
C423        C  0.38958982  0.23208147  0.23211326    -0.16600
C424        C  0.36979669  0.24074093  0.24077094     0.07400
C425        C  0.34683381  0.25113155  0.25115887     0.09300
C426        C  0.32740352  0.26019873  0.26022361    -0.17500
C427        C  0.49479767  0.10256442  0.10258290    -0.16600
C428        C  0.49479756  0.08611104  0.08612804     0.07400
C429        C  0.49479753  0.06683902  0.06685467     0.09300
C430        C  0.49479786  0.05038207  0.05039677    -0.17500
C431        C  0.49480085  0.93921133  0.05039332    -0.16600
C432        C  0.49480063  0.92275344  0.06685046     0.07400
C433        C  0.49480019  0.90348053  0.08612318     0.09300
C434        C  0.49479990  0.88702648  0.10257755    -0.17500
C435        C  0.49480063  0.05038607  0.93922645    -0.16600
C436        C  0.49480098  0.06684415  0.92276950     0.07400
C437        C  0.49480159  0.08611769  0.90349742     0.09300
C438        C  0.49480199  0.10257264  0.88704397    -0.17500
C439        C  0.49480605  0.88703191  0.88703822    -0.16600
C440        C  0.49480557  0.90348579  0.90349257     0.07400
C441        C  0.49480478  0.92275826  0.92276549     0.09300
C442        C  0.49480398  0.93921540  0.93922319    -0.17500
C443        C  0.23209214  0.38958689  0.23210245    -0.16600
C444        C  0.24075068  0.36979389  0.24076167     0.07400
C445        C  0.25113995  0.34683124  0.25115186     0.09300
C446        C  0.26020568  0.32740110  0.26021870    -0.17500
C447        C  0.05038512  0.49479806  0.05039265    -0.16600
C448        C  0.06684231  0.49479769  0.06685039     0.07400
C449        C  0.08611477  0.49479735  0.08612344     0.09300
C450        C  0.10256864  0.49479704  0.10257790    -0.17500
C451        C  0.88702976  0.49478956  0.10257247    -0.16600
C452        C  0.90348391  0.49479055  0.08611839     0.07400
C453        C  0.92275686  0.49479238  0.06684594     0.09300
C454        C  0.93921467  0.49479424  0.05038891    -0.17500
C455        C  0.05038866  0.49480727  0.93922275    -0.16600
C456        C  0.06684677  0.49480891  0.92276605     0.07400
C457        C  0.08612033  0.49481047  0.90349426     0.09300
C458        C  0.10257524  0.49481134  0.88704097    -0.17500
C459        C  0.88703422  0.49480365  0.88703390    -0.16600
C460        C  0.90348869  0.49480353  0.90348775     0.07400
C461        C  0.92276142  0.49480353  0.92276052     0.09300
C462        C  0.93921851  0.49480336  0.93921836    -0.17500
C463        C  0.66219334  0.26019979  0.26021812    -0.16600
C464        C  0.64276301  0.25113391  0.25115247     0.07400
C465        C  0.61980009  0.24074458  0.24076374     0.09300
C466        C  0.60000689  0.23208584  0.23210581    -0.17500
C467        C  0.72939500  0.32739705  0.26021633    -0.16600
C468        C  0.73846168  0.34682672  0.25114979     0.07400
C469        C  0.74885162  0.36978903  0.24075993     0.09300
C470        C  0.75751049  0.38958185  0.23210096    -0.17500
C471        C  0.72939055  0.26020089  0.32741990    -0.16600
C472        C  0.73845573  0.25113506  0.34685064     0.07400
C473        C  0.74884448  0.24074565  0.36981367     0.09300
C474        C  0.75750276  0.23208714  0.38960695    -0.17500
C475        C  0.75751078  0.59999999  0.23209803    -0.16600
C476        C  0.74885277  0.61979361  0.24075624     0.07400
C477        C  0.73846419  0.64275723  0.25114480     0.09300
C478        C  0.72939889  0.66218827  0.26020998    -0.17500
C479        C  0.66219912  0.72938852  0.26020923    -0.16600
C480        C  0.64276815  0.73845391  0.25114398     0.07400
C481        C  0.61980455  0.74884258  0.24075554     0.09300
C482        C  0.60001091  0.75750077  0.23209763    -0.17500
C483        C  0.72940167  0.72939175  0.32740608    -0.16600
C484        C  0.73846809  0.73845894  0.34683554     0.07400
C485        C  0.74885771  0.74884983  0.36979750     0.09300
C486        C  0.75751611  0.75750954  0.38959018    -0.17500
C487        C  0.23209151  0.60000462  0.23210058    -0.16600
C488        C  0.24075003  0.61979787  0.24075869     0.07400
C489        C  0.25113931  0.64276090  0.25114731     0.09300
C490        C  0.26020530  0.66219134  0.26021270    -0.17500
C491        C  0.38959328  0.75750174  0.23210032    -0.16600
C492        C  0.36979989  0.74884355  0.24075838     0.07400
C493        C  0.34683659  0.73845487  0.25114691     0.09300
C494        C  0.32740589  0.72938955  0.26021234    -0.17500
C495        C  0.23209230  0.75750685  0.38959672    -0.16600
C496        C  0.24075069  0.74884788  0.36980379     0.07400
C497        C  0.25114012  0.73845798  0.34684141     0.09300
C498        C  0.26020611  0.72939160  0.32741143    -0.17500
C499        C  0.26021254  0.66220286  0.72940147    -0.16600
C500        C  0.25114639  0.64277301  0.73846773     0.07400
C501        C  0.24075682  0.61981081  0.74885751     0.09300
C502        C  0.23209801  0.60001817  0.75751650    -0.17500
C503        C  0.26021398  0.72940127  0.66220099    -0.16600
C504        C  0.25114862  0.73846658  0.64277021     0.07400
C505        C  0.24075989  0.74885486  0.61980683     0.09300
C506        C  0.23210151  0.75751265  0.60001338    -0.17500
C507        C  0.32741332  0.72939994  0.72940006    -0.16600
C508        C  0.34684380  0.73846525  0.73846559     0.07400
C509        C  0.36980668  0.74885394  0.74885444     0.09300
C510        C  0.38959978  0.75751223  0.75751266    -0.17500
C511        C  0.23209366  0.23209956  0.60002698    -0.16600
C512        C  0.24075240  0.24075799  0.61981991     0.07400
C513        C  0.25114184  0.25114693  0.64278258     0.09300
C514        C  0.26020800  0.26021269  0.66221268    -0.17500
C515        C  0.32740927  0.26021458  0.72941020    -0.16600
C516        C  0.34683972  0.25114922  0.73847618     0.07400
C517        C  0.36980251  0.24076051  0.74886576     0.09300
C518        C  0.38959550  0.23210224  0.75752468    -0.17500
C519        C  0.23209857  0.38960220  0.75752081    -0.16600
C520        C  0.24075672  0.36980881  0.74886275     0.07400
C521        C  0.25114533  0.34684556  0.73847420     0.09300
C522        C  0.26021057  0.32741473  0.72940900    -0.17500
C523        C  0.66219563  0.26021147  0.72941034    -0.16600
C524        C  0.64276578  0.25114613  0.73847715     0.07400
C525        C  0.61980352  0.24075749  0.74886732     0.09300
C526        C  0.60001067  0.23209950  0.75752636    -0.17500
C527        C  0.72939338  0.26020790  0.66220996    -0.16600
C528        C  0.73845868  0.25114171  0.64277970     0.07400
C529        C  0.74884722  0.24075243  0.61981683     0.09300
C530        C  0.75750528  0.23209393  0.60002366    -0.17500
C531        C  0.72939394  0.32741072  0.72940532    -0.16600
C532        C  0.73845955  0.34684139  0.73847015     0.07400
C533        C  0.74884848  0.36980445  0.74885832     0.09300
C534        C  0.75750688  0.38959771  0.75751607    -0.17500
C535        C  0.60001531  0.75751731  0.75750763    -0.16600
C536        C  0.61980826  0.74885843  0.74884934     0.07400
C537        C  0.64277077  0.73846858  0.73846042     0.09300
C538        C  0.66220086  0.72940212  0.72939486    -0.17500
C539        C  0.72939853  0.66220059  0.72939590    -0.16600
C540        C  0.73846380  0.64277015  0.73846227     0.07400
C541        C  0.74885233  0.61980732  0.74885229     0.09300
C542        C  0.75751031  0.60001420  0.75751151    -0.17500
C543        C  0.72939952  0.72939913  0.66219518    -0.16600
C544        C  0.73846471  0.73846414  0.64276423     0.07400
C545        C  0.74885295  0.74885251  0.61980069     0.09300
C546        C  0.75751080  0.75751067  0.60000721    -0.17500
loop_ 
_geom_bond_atom_site_label_1 
_geom_bond_atom_site_label_2 
_geom_bond_distance 
_geom_bond_site_symmetry_2 
_ccdc_geom_bond_type 
C1            C2   1.402       .  A
C1            C6   1.402       .  A
C1          C539   1.441       .  S
C2            C3   1.402       .  A
C2            H7   1.085       .  S
C3            C4   1.402       .  A
C3          C538   1.441       .  S
C4            C5   1.402       .  A
C4            H8   1.085       .  S
C5            C6   1.402       .  A
C5          C543   1.441       .  S
C6            H9   1.085       .  S
C10          C11   1.402       .  A
C10          C15   1.402       .  A
C10         C527   1.441       .  S
C11          C12   1.402       .  A
C11          H16   1.085       .  S
C12          C13   1.402       .  A
C12         C523   1.441       .  S
C13          C14   1.402       .  A
C13          H17   1.085       .  S
C14          C15   1.402       .  A
C14         C531   1.441       .  S
C15          H18   1.085       .  S
C19          C20   1.402       .  A
C19          C24   1.402       .  A
C19         C514   1.441       .  S
C20          C21   1.402       .  A
C20          H25   1.085       .  S
C21          C22   1.402       .  A
C21         C522   1.441       .  S
C22          C23   1.402       .  A
C22          H26   1.085       .  S
C23          C24   1.402       .  A
C23         C515   1.441       .  S
C24          H27   1.085       .  S
C28          C29   1.402       .  A
C28          C33   1.402       .  A
C28         C499   1.441       .  S
C29          C30   1.402       .  A
C29          H34   1.085       .  S
C30          C31   1.402       .  A
C30         C507   1.441       .  S
C31          C32   1.402       .  A
C31          H35   1.085       .  S
C32          C33   1.402       .  A
C32         C503   1.441       .  S
C33          H36   1.085       .  S
C37          C38   1.402       .  A
C37          C42   1.402       .  A
C37         C494   1.441       .  S
C38          C39   1.402       .  A
C38          H43   1.085       .  S
C39          C40   1.402       .  A
C39         C498   1.441       .  S
C40          C41   1.402       .  A
C40          H44   1.085       .  S
C41          C42   1.402       .  A
C41         C490   1.441       .  S
C42          H45   1.085       .  S
C46          C47   1.402       .  A
C46          C51   1.402       .  A
C46         C478   1.441       .  S
C47          C48   1.402       .  A
C47          H52   1.085       .  S
C48          C49   1.402       .  A
C48         C483   1.441       .  S
C49          C50   1.402       .  A
C49          H53   1.085       .  S
C50          C51   1.402       .  A
C50         C479   1.441       .  S
C51          H54   1.085       .  S
C55          C56   1.402       .  A
C55          C60   1.402       .  A
C55         C467   1.441       .  S
C56          C57   1.402       .  A
C56          H61   1.085       .  S
C57          C58   1.402       .  A
C57         C463   1.441       .  S
C58          C59   1.402       .  A
C58          H62   1.085       .  S
C59          C60   1.402       .  A
C59         C471   1.441       .  S
C60          H63   1.085       .  S
N64          N65   1.323       .  A
N64          C68   1.346       .  A
N64         Cu72   2.073       .  S
N65          C66   1.345       .  A
N65         Cu71   2.071       .  S
C66          C67   1.379       .  A
C66          H69   1.082       .  S
C67          C68   1.380       .  A
C67         C542   1.437       .  S
C68          H70   1.082       .  S
Cu71         N74   2.071       .  S
Cu72         N82   2.073       .  S
Cu73         N75   2.073       .  S
Cu73         N81   2.073       .  S
N74          N75   1.323       .  A
N74          C78   1.345       .  A
N75          C76   1.346       .  A
C76          C77   1.380       .  A
C76          H79   1.082       .  S
C77          C78   1.379       .  A
C77         C534   1.437       .  S
C78          H80   1.082       .  S
N81          N82   1.324       .  A
N81          C85   1.345       .  A
N82          C83   1.345       .  A
C83          C84   1.379       .  A
C83          H86   1.082       .  S
C84          C85   1.379       .  A
C84         C459   1.437       .  S
C85          H87   1.082       .  S
N88          N89   1.323       .  A
N88          C92   1.346       .  A
N88         Cu96   2.073       .  S
N89          C90   1.345       .  A
N89         Cu95   2.071       .  S
C90          C91   1.379       .  A
C90          H93   1.082       .  S
C91          C92   1.380       .  A
C91         C502   1.437       .  S
C92          H94   1.082       .  S
Cu95         N98   2.071       .  S
Cu96        N106   2.073       .  S
Cu97         N99   2.073       .  S
Cu97        N105   2.073       .  S
N98          N99   1.323       .  A
N98         C102   1.345       .  A
N99         C100   1.346       .  A
C100        C101   1.380       .  A
C100        H103   1.082       .  S
C101        C102   1.379       .  A
C101        C519   1.437       .  S
C102        H104   1.082       .  S
N105        N106   1.324       .  A
N105        C109   1.345       .  A
N106        C107   1.345       .  A
C107        C108   1.379       .  A
C107        H110   1.082       .  S
C108        C109   1.379       .  A
C108        C458   1.437       .  S
C109        H111   1.082       .  S
N112        N113   1.323       .  A
N112        C116   1.346       .  A
N112       Cu120   2.073       .  S
N113        C114   1.345       .  A
N113       Cu119   2.071       .  S
C114        C115   1.379       .  A
C114        H117   1.082       .  S
C115        C116   1.380       .  A
C115        C470   1.437       .  S
C116        H118   1.082       .  S
Cu119       N122   2.071       .  S
Cu120       N130   2.073       .  S
Cu121       N123   2.073       .  S
Cu121       N129   2.073       .  S
N122        N123   1.323       .  A
N122        C126   1.345       .  A
N123        C124   1.346       .  A
C124        C125   1.380       .  A
C124        H127   1.082       .  S
C125        C126   1.379       .  A
C125        C475   1.437       .  S
C126        H128   1.082       .  S
N129        N130   1.324       .  A
N129        C133   1.345       .  A
N130        C131   1.345       .  A
C131        C132   1.379       .  A
C131        H134   1.082       .  S
C132        C133   1.379       .  A
C132        C451   1.437       .  S
C133        H135   1.082       .  S
N136        N137   1.323       .  A
N136        C140   1.346       .  A
N136       Cu144   2.073       .  S
N137        C138   1.345       .  A
N137       Cu143   2.071       .  S
C138        C139   1.379       .  A
C138        H141   1.082       .  S
C139        C140   1.380       .  A
C139        C443   1.437       .  S
C140        H142   1.082       .  S
Cu143       N146   2.071       .  S
Cu144       N154   2.073       .  S
Cu145       N147   2.073       .  S
Cu145       N153   2.073       .  S
N146        N147   1.323       .  A
N146        C150   1.345       .  A
N147        C148   1.346       .  A
C148        C149   1.380       .  A
C148        H151   1.082       .  S
C149        C150   1.379       .  A
C149        C487   1.437       .  S
C150        H152   1.082       .  S
N153        N154   1.324       .  A
N153        C157   1.345       .  A
N154        C155   1.345       .  A
C155        C156   1.379       .  A
C155        H158   1.082       .  S
C156        C157   1.379       .  A
C156        C450   1.437       .  S
C157        H159   1.082       .  S
O160       Cu168   2.011   1_454  S
O160        C170   1.277       .  A
O161       Cu168   2.011       .  S
O161        C171   1.277       .  A
O162       Cu168   2.011   1_455  S
O162        C172   1.277       .  A
O163       Cu168   2.011   1_554  S
O163        C173   1.277       .  A
O164       Cu169   2.011   1_554  S
O164        C173   1.277       .  A
O165       Cu169   2.011   1_455  S
O165        C172   1.277       .  A
O166       Cu169   2.011       .  S
O166        C171   1.277       .  A
O167       Cu169   2.011   1_454  S
O167        C170   1.277       .  A
Cu168      Cu169   2.380       .  S
C170        C447   1.436       .  S
C171        C462   1.436       .  S
C172        C455   1.436       .  S
C173        C454   1.436       .  S
N174        N175   1.323       .  A
N174        C178   1.346       .  A
N174       Cu182   2.073       .  S
N175        C176   1.345       .  A
N175       Cu181   2.071       .  S
C176        C177   1.379       .  A
C176        H179   1.082       .  S
C177        C178   1.380       .  A
C177        C535   1.437       .  S
C178        H180   1.082       .  S
Cu181       N184   2.071       .  S
Cu182       N192   2.073       .  S
Cu183       N185   2.073       .  S
Cu183       N191   2.073       .  S
N184        N185   1.323       .  A
N184        C188   1.345       .  A
N185        C186   1.346       .  A
C186        C187   1.380       .  A
C186        H189   1.082       .  S
C187        C188   1.379       .  A
C187        C510   1.437       .  S
C188        H190   1.082       .  S
N191        N192   1.324       .  A
N191        C195   1.345       .  A
N192        C193   1.345       .  A
C193        C194   1.379       .  A
C193        H196   1.082       .  S
C194        C195   1.379       .  A
C194        C439   1.437       .  S
C195        H197   1.082       .  S
N198        N199   1.323       .  A
N198        C202   1.346       .  A
N198       Cu206   2.073       .  S
N199        C200   1.345       .  A
N199       Cu205   2.071       .  S
C200        C201   1.379       .  A
C200        H203   1.082       .  S
C201        C202   1.380       .  A
C201        C526   1.437       .  S
C202        H204   1.082       .  S
Cu205       N208   2.071       .  S
Cu206       N216   2.073       .  S
Cu207       N209   2.073       .  S
Cu207       N215   2.073       .  S
N208        N209   1.323       .  A
N208        C212   1.345       .  A
N209        C210   1.346       .  A
C210        C211   1.380       .  A
C210        H213   1.082       .  S
C211        C212   1.379       .  A
C211        C518   1.437       .  S
C212        H214   1.082       .  S
N215        N216   1.324       .  A
N215        C219   1.345       .  A
N216        C217   1.345       .  A
C217        C218   1.379       .  A
C217        H220   1.082       .  S
C218        C219   1.379       .  A
C218        C438   1.437       .  S
C219        H221   1.082       .  S
N222        N223   1.323       .  A
N222        C226   1.346       .  A
N222       Cu230   2.073       .  S
N223        C224   1.345       .  A
N223       Cu229   2.071       .  S
C224        C225   1.379       .  A
C224        H227   1.082       .  S
C225        C226   1.380       .  A
C225        C491   1.437       .  S
C226        H228   1.082       .  S
Cu229       N232   2.071       .  S
Cu230       N240   2.073       .  S
Cu231       N233   2.073       .  S
Cu231       N239   2.073       .  S
N232        N233   1.323       .  A
N232        C236   1.345       .  A
N233        C234   1.346       .  A
C234        C235   1.380       .  A
C234        H237   1.082       .  S
C235        C236   1.379       .  A
C235        C482   1.437       .  S
C236        H238   1.082       .  S
N239        N240   1.324       .  A
N239        C243   1.345       .  A
N240        C241   1.345       .  A
C241        C242   1.379       .  A
C241        H244   1.082       .  S
C242        C243   1.379       .  A
C242        C434   1.437       .  S
C243        H245   1.082       .  S
N246        N247   1.323       .  A
N246        C250   1.346       .  A
N246       Cu254   2.073       .  S
N247        C248   1.345       .  A
N247       Cu253   2.071       .  S
C248        C249   1.379       .  A
C248        H251   1.082       .  S
C249        C250   1.380       .  A
C249        C423   1.437       .  S
C250        H252   1.082       .  S
Cu253       N256   2.071       .  S
Cu254       N264   2.073       .  S
Cu255       N257   2.073       .  S
Cu255       N263   2.073       .  S
N256        N257   1.323       .  A
N256        C260   1.345       .  A
N257        C258   1.346       .  A
C258        C259   1.380       .  A
C258        H261   1.082       .  S
C259        C260   1.379       .  A
C259        C466   1.437       .  S
C260        H262   1.082       .  S
N263        N264   1.324       .  A
N263        C267   1.345       .  A
N264        C265   1.345       .  A
C265        C266   1.379       .  A
C265        H268   1.082       .  S
C266        C267   1.379       .  A
C266        C427   1.437       .  S
C267        H269   1.082       .  S
O270       Cu278   2.011   1_544  S
O270        C280   1.277       .  A
O271       Cu278   2.011       .  S
O271        C281   1.277       .  A
O272       Cu278   2.011   1_554  S
O272        C282   1.277       .  A
O273       Cu278   2.011   1_545  S
O273        C283   1.277       .  A
O274       Cu279   2.011   1_545  S
O274        C283   1.277       .  A
O275       Cu279   2.011   1_554  S
O275        C282   1.277       .  A
O276       Cu279   2.011       .  S
O276        C281   1.277       .  A
O277       Cu279   2.011   1_544  S
O277        C280   1.277       .  A
Cu278      Cu279   2.380       .  S
C280        C430   1.436       .  S
C281        C442   1.436       .  S
C282        C431   1.436       .  S
C283        C435   1.436       .  S
C284        C285   1.402       .  A
C284        C289   1.402       .  A
C284        C446   1.441       .  S
C285        C286   1.402       .  A
C285        H290   1.085       .  S
C286        C287   1.402       .  A
C286        C426   1.441       .  S
C287        C288   1.402       .  A
C287        H291   1.085       .  S
C288        C289   1.402       .  A
C288        C419   1.441       .  S
C289        H292   1.085       .  S
N293        N294   1.323       .  A
N293        C297   1.346       .  A
N293       Cu301   2.073       .  S
N294        C295   1.345       .  A
N294       Cu300   2.071       .  S
C295        C296   1.379       .  A
C295        H298   1.082       .  S
C296        C297   1.380       .  A
C296        C546   1.437       .  S
C297        H299   1.082       .  S
Cu300       N303   2.071       .  S
Cu301       N311   2.073       .  S
Cu302       N304   2.073       .  S
Cu302       N310   2.073       .  S
N303        N304   1.323       .  A
N303        C307   1.345       .  A
N304        C305   1.346       .  A
C305        C306   1.380       .  A
C305        H308   1.082       .  S
C306        C307   1.379       .  A
C306        C486   1.437       .  S
C307        H309   1.082       .  S
N310        N311   1.324       .  A
N310        C314   1.345       .  A
N311        C312   1.345       .  A
C312        C313   1.379       .  A
C312        H315   1.082       .  S
C313        C314   1.379       .  A
C313        C415   1.437       .  S
C314        H316   1.082       .  S
N317        N318   1.323       .  A
N317        C321   1.346       .  A
N317       Cu325   2.073       .  S
N318        C319   1.345       .  A
N318       Cu324   2.071       .  S
C319        C320   1.379       .  A
C319        H322   1.082       .  S
C320        C321   1.380       .  A
C320        C506   1.437       .  S
C321        H323   1.082       .  S
Cu324       N327   2.071       .  S
Cu325       N335   2.073       .  S
Cu326       N328   2.073       .  S
Cu326       N334   2.073       .  S
N327        N328   1.323       .  A
N327        C331   1.345       .  A
N328        C329   1.346       .  A
C329        C330   1.380       .  A
C329        H332   1.082       .  S
C330        C331   1.379       .  A
C330        C495   1.437       .  S
C331        H333   1.082       .  S
N334        N335   1.324       .  A
N334        C338   1.345       .  A
N335        C336   1.345       .  A
C336        C337   1.379       .  A
C336        H339   1.082       .  S
C337        C338   1.379       .  A
C337        C411   1.437       .  S
C338        H340   1.082       .  S
N341        N342   1.323       .  A
N341        C345   1.346       .  A
N341       Cu349   2.073       .  S
N342        C343   1.345       .  A
N342       Cu348   2.071       .  S
C343        C344   1.379       .  A
C343        H346   1.082       .  S
C344        C345   1.380       .  A
C344        C530   1.437       .  S
C345        H347   1.082       .  S
Cu348       N351   2.071       .  S
Cu349       N359   2.073       .  S
Cu350       N352   2.073       .  S
Cu350       N358   2.073       .  S
N351        N352   1.323       .  A
N351        C355   1.345       .  A
N352        C353   1.346       .  A
C353        C354   1.380       .  A
C353        H356   1.082       .  S
C354        C355   1.379       .  A
C354        C474   1.437       .  S
C355        H357   1.082       .  S
N358        N359   1.324       .  A
N358        C362   1.345       .  A
N359        C360   1.345       .  A
C360        C361   1.379       .  A
C360        H363   1.082       .  S
C361        C362   1.379       .  A
C361        C407   1.437       .  S
C362        H364   1.082       .  S
N365        N366   1.323       .  A
N365        C369   1.346       .  A
N365       Cu373   2.073       .  S
N366        C367   1.345       .  A
N366       Cu372   2.071       .  S
C367        C368   1.379       .  A
C367        H370   1.082       .  S
C368        C369   1.380       .  A
C368        C511   1.437       .  S
C369        H371   1.082       .  S
Cu372       N375   2.071       .  S
Cu373       N383   2.073       .  S
Cu374       N376   2.073       .  S
Cu374       N382   2.073       .  S
N375        N376   1.323       .  A
N375        C379   1.345       .  A
N376        C377   1.346       .  A
C377        C378   1.380       .  A
C377        H380   1.082       .  S
C378        C379   1.379       .  A
C378        C422   1.437       .  S
C379        H381   1.082       .  S
N382        N383   1.324       .  A
N382        C386   1.345       .  A
N383        C384   1.345       .  A
C384        C385   1.379       .  A
C384        H387   1.082       .  S
C385        C386   1.379       .  A
C385        C403   1.437       .  S
C386        H388   1.082       .  S
O389       Cu397   2.011   1_455  S
O389        C399   1.277       .  A
O390       Cu397   2.011   1_545  S
O390        C400   1.277       .  A
O391       Cu397   2.011   1_445  S
O391        C401   1.277       .  A
O392       Cu397   2.011       .  S
O392        C402   1.277       .  A
O393       Cu398   2.011       .  S
O393        C402   1.277       .  A
O394       Cu398   2.011   1_445  S
O394        C401   1.277       .  A
O395       Cu398   2.011   1_545  S
O395        C400   1.277       .  A
O396       Cu398   2.011   1_455  S
O396        C399   1.277       .  A
Cu397      Cu398   2.380       .  S
C399        C414   1.436       .  S
C400        C410   1.436       .  S
C401        C406   1.436       .  S
C402        C418   1.436       .  S
C403        C404   1.206       .  T
C404        C405   1.412       .  S
C405        C406   1.206       .  T
C407        C408   1.206       .  T
C408        C409   1.412       .  S
C409        C410   1.206       .  T
C411        C412   1.206       .  T
C412        C413   1.412       .  S
C413        C414   1.206       .  T
C415        C416   1.206       .  T
C416        C417   1.412       .  S
C417        C418   1.206       .  T
C419        C420   1.206       .  T
C420        C421   1.412       .  S
C421        C422   1.206       .  T
C423        C424   1.206       .  T
C424        C425   1.412       .  S
C425        C426   1.206       .  T
C427        C428   1.206       .  T
C428        C429   1.412       .  S
C429        C430   1.206       .  T
C431        C432   1.206       .  T
C432        C433   1.412       .  S
C433        C434   1.206       .  T
C435        C436   1.206       .  T
C436        C437   1.412       .  S
C437        C438   1.206       .  T
C439        C440   1.206       .  T
C440        C441   1.412       .  S
C441        C442   1.206       .  T
C443        C444   1.206       .  T
C444        C445   1.412       .  S
C445        C446   1.206       .  T
C447        C448   1.206       .  T
C448        C449   1.412       .  S
C449        C450   1.206       .  T
C451        C452   1.206       .  T
C452        C453   1.412       .  S
C453        C454   1.206       .  T
C455        C456   1.206       .  T
C456        C457   1.412       .  S
C457        C458   1.206       .  T
C459        C460   1.206       .  T
C460        C461   1.412       .  S
C461        C462   1.206       .  T
C463        C464   1.206       .  T
C464        C465   1.412       .  S
C465        C466   1.206       .  T
C467        C468   1.206       .  T
C468        C469   1.412       .  S
C469        C470   1.206       .  T
C471        C472   1.206       .  T
C472        C473   1.412       .  S
C473        C474   1.206       .  T
C475        C476   1.206       .  T
C476        C477   1.412       .  S
C477        C478   1.206       .  T
C479        C480   1.206       .  T
C480        C481   1.412       .  S
C481        C482   1.206       .  T
C483        C484   1.206       .  T
C484        C485   1.412       .  S
C485        C486   1.206       .  T
C487        C488   1.206       .  T
C488        C489   1.412       .  S
C489        C490   1.206       .  T
C491        C492   1.206       .  T
C492        C493   1.412       .  S
C493        C494   1.206       .  T
C495        C496   1.206       .  T
C496        C497   1.412       .  S
C497        C498   1.206       .  T
C499        C500   1.206       .  T
C500        C501   1.412       .  S
C501        C502   1.206       .  T
C503        C504   1.206       .  T
C504        C505   1.412       .  S
C505        C506   1.206       .  T
C507        C508   1.206       .  T
C508        C509   1.412       .  S
C509        C510   1.206       .  T
C511        C512   1.206       .  T
C512        C513   1.412       .  S
C513        C514   1.206       .  T
C515        C516   1.206       .  T
C516        C517   1.412       .  S
C517        C518   1.206       .  T
C519        C520   1.206       .  T
C520        C521   1.412       .  S
C521        C522   1.206       .  T
C523        C524   1.206       .  T
C524        C525   1.412       .  S
C525        C526   1.206       .  T
C527        C528   1.206       .  T
C528        C529   1.412       .  S
C529        C530   1.206       .  T
C531        C532   1.206       .  T
C532        C533   1.412       .  S
C533        C534   1.206       .  T
C535        C536   1.206       .  T
C536        C537   1.412       .  S
C537        C538   1.206       .  T
C539        C540   1.206       .  T
C540        C541   1.412       .  S
C541        C542   1.206       .  T
C543        C544   1.206       .  T
C544        C545   1.412       .  S
C545        C546   1.206       .  T
