geometry optimzed in LAMMPS
_audit_creation_date              2020-12-01 
_audit_creation_method            'lammps2cif' 
_symmetry_space_group_name_H-M    'P1' 
_symmetry_Int_Tables_number       1 
_symmetry_cell_setting            triclinic 
loop_ 
_symmetry_equiv_pos_as_xyz 
  x,y,z 
_cell_length_a                    40.60638939 
_cell_length_b                    40.77416508621693 
_cell_length_c                    32.77783659087672 
_cell_angle_alpha                 90.3423306527974 
_cell_angle_beta                  90.93386720656491 
_cell_angle_gamma                 89.30275134200866 
loop_ 
_atom_site_label 
_atom_site_type_symbol 
_atom_site_fract_x 
_atom_site_fract_y 
_atom_site_fract_z 
_atom_site_charge 
N1          N  0.21765611  0.21048053  0.80683176    -0.03100
C2          C  0.18967820  0.22221188  0.82457731    -0.00500
C3          C  0.17866570  0.20072616  0.85348185    -0.23400
C4          C  0.20073526  0.17525343  0.85496282    -0.23600
C5          C  0.22479418  0.18189763  0.82682118    -0.00600
H6          H  0.15819527  0.20462207  0.87371650     0.13200
H7          H  0.20075153  0.15558327  0.87697670     0.13200
Zn8        Zn  0.51284909  0.46928336  0.86610671     1.49700
Zn9        Zn  0.50480509  0.04155011  0.87906103     1.49400
Zn10       Zn  0.48089043  0.51508963  0.93221042     1.49100
Zn11       Zn  0.04601437  0.48807996  0.93706758     1.49500
O12         O  0.52126015  0.50558586  0.90286249    -1.83800
O13         O  0.51150322  0.48314792  0.80710898    -0.74400
O14         O  0.46198292  0.06771359  0.88277457    -0.74200
O15         O  0.45032434  0.47637967  0.92953893    -0.73700
O16         O  0.50794169  0.03144319  0.81828432    -0.74400
O17         O  0.47279828  0.44402243  0.88271175    -0.74000
O18         O  0.43178293  0.03717583  0.92341607    -0.74600
O19         O  0.03229541  0.48530960  0.99676836    -0.74000
O20         O  0.05052418  0.07554941  0.89539850    -0.74700
O21         O  0.49142643  0.51976728  0.99230851    -0.74100
O22         O  0.07707451  0.04408497  0.94066247    -0.74600
O23         O  0.07053530  0.44623624  0.91721248    -0.74500
O24         O  0.03759730  0.43238793  0.86537576    -0.74300
C25         C  0.52411298  0.50777347  0.78968497     0.77500
C26         C  0.43466790  0.06151138  0.89957271     0.78000
C27         C  0.45088966  0.44960343  0.90936467     0.76900
C28         C  0.51391148  0.50715962  0.01520564     0.77300
C29         C  0.07385230  0.07111275  0.92158987     0.78500
C30         C  0.06352770  0.42755916  0.88685819     0.77500
N31         N  0.26854066  0.25784050  0.97967108    -0.03100
C32         C  0.24838314  0.23845172  0.95625562    -0.00500
C33         C  0.25831039  0.23788792  0.91625077    -0.23400
C34         C  0.28499661  0.25771243  0.91404401    -0.23600
C35         C  0.29090471  0.26973782  0.95294326    -0.00600
H36         H  0.24739739  0.22412730  0.89132967     0.13200
H37         H  0.29849396  0.26316946  0.88674284     0.13200
N38         N  0.46148141  0.48336275  0.31203490    -0.03100
C39         C  0.99098523  0.45721860  0.34008523    -0.00500
C40         C  0.97029629  0.44955427  0.37172493    -0.23400
C41         C  0.44138089  0.96781620  0.37762543    -0.23600
C42         C  0.44607097  0.98675063  0.34356439    -0.00600
H43         H  0.97501720  0.43190881  0.39572740     0.13200
H44         H  0.42159318  0.97010253  0.39913218     0.13200
Zn45       Zn  0.24928176  0.22678750  0.36263331     1.49700
Zn46       Zn  0.22288612  0.27123784  0.43566218     1.49400
Zn47       Zn  0.29847942  0.25333264  0.43350326     1.49100
Zn48       Zn  0.26632118  0.30064473  0.36646205     1.49500
O49         O  0.25949024  0.26252838  0.39981628    -1.83800
O50         O  0.20798065  0.20293953  0.37975431    -0.74400
O51         O  0.23769230  0.27372101  0.49510693    -0.74200
O52         O  0.32321851  0.21322023  0.41067491    -0.73700
O53         O  0.19165830  0.23341249  0.43231985    -0.74400
O54         O  0.28616433  0.19379871  0.36602864    -0.74000
O55         O  0.28482270  0.24531395  0.49268747    -0.74600
O56         O  0.30162479  0.32869453  0.39329032    -0.74000
O57         O  0.19679677  0.31116914  0.41731571    -0.74700
O58         O  0.32736691  0.29396424  0.43565569    -0.74100
O59         O  0.22373527  0.32672135  0.36223453    -0.74600
O60         O  0.27743029  0.28783402  0.30813319    -0.74500
O61         O  0.24736308  0.24262719  0.30338689    -0.74300
C62         C  0.18846632  0.20837857  0.40924494     0.77500
C63         C  0.26124555  0.25816965  0.51294306     0.78000
C64         C  0.31378632  0.19151545  0.38483469     0.76900
C65         C  0.32421069  0.32241409  0.41980657     0.77300
C66         C  0.19903553  0.32891057  0.38559684     0.78500
C67         C  0.26339219  0.26563683  0.28669873     0.77500
N68         N  0.50155428  0.52141826  0.48509516    -0.03100
C69         C  0.47611768  0.50846619  0.46312307    -0.00500
C70         C  0.47463136  0.52200681  0.42461507    -0.23400
C71         C  0.00218458  0.04436430  0.42499879    -0.23600
C72         C  0.01568008  0.04552774  0.46386760    -0.00600
H73         H  0.45718707  0.51639220  0.40065448     0.13200
H74         H  0.00907730  0.05894242  0.39906677     0.13200
C75         C  0.16230608  0.18467122  0.41850592    -0.00900
C76         C  0.13444515  0.19495885  0.44000340    -0.09000
C77         C  0.11119347  0.17241681  0.45279146    -0.17800
C78         C  0.11530248  0.13847610  0.44501177     0.04600
C79         C  0.14349088  0.12818508  0.42280681     0.18800
C80         C  0.16637509  0.15125709  0.40941780    -0.19200
C81         C  0.14886569  0.09487860  0.41441321    -0.20500
C82         C  0.12650226  0.07154909  0.42678554    -0.19000
C83         C  0.09809824  0.08093298  0.44769985     0.20200
C84         C  0.09225562  0.11444970  0.45776091     0.02300
C85         C  0.06294558  0.12246041  0.47870469    -0.13800
C86         C  0.03912603  0.09871200  0.48563495    -0.11500
C87         C  0.04426466  0.06622539  0.47327465     0.01800
C88         C  0.07442097  0.05721609  0.45617114    -0.23600
H89         H  0.13073638  0.22066451  0.44734856     0.09900
H90         H  0.09047993  0.18233120  0.46910573     0.13400
H91         H  0.18804793  0.14302224  0.39318338     0.12100
H92         H  0.17038642  0.08682368  0.39778579     0.13300
H93         H  0.13107493  0.04602629  0.41907884     0.12400
H94         H  0.05684205  0.14714415  0.48803123     0.09400
H95         H  0.01555654  0.10631276  0.49773121     0.12700
H96         H  0.07799249  0.03217048  0.44558356     0.14600
C97         C  0.34658456  0.34908684  0.43332912    -0.00900
C98         C  0.37778919  0.34204593  0.45026279    -0.09000
C99         C  0.39893554  0.36732143  0.46248027    -0.17800
C100        C  0.38926730  0.40066374  0.45870654     0.04600
C101        C  0.35683602  0.40752392  0.44378190     0.18800
C102        C  0.33619986  0.38195014  0.43070995    -0.19200
C103        C  0.34524045  0.43992942  0.44151427    -0.20500
C104        C  0.36560690  0.46586029  0.45210350    -0.19000
C105        C  0.39841371  0.46010565  0.46399736     0.20200
C106        C  0.41072247  0.42745952  0.46803512     0.02300
C107        C  0.44450400  0.42324087  0.47843619    -0.13800
C108        C  0.46558327  0.45016533  0.48113290    -0.11500
C109        C  0.45350899  0.48209133  0.47510719     0.01800
C110        C  0.41963727  0.48688489  0.46843399    -0.23600
H111        H  0.38614691  0.31684968  0.45345183     0.09900
H112        H  0.42263761  0.36003437  0.47488733     0.13400
H113        H  0.31174422  0.38767883  0.41879000     0.12100
H114        H  0.32037317  0.44530523  0.43080946     0.13300
H115        H  0.35608995  0.49069117  0.44898774     0.12400
H116        H  0.45582744  0.39933128  0.48163349     0.09400
H117        H  0.49177985  0.44563821  0.48428472     0.13300
H118        H  0.41033604  0.51151553  0.46266941     0.14600
C119        C  0.17185349  0.35183616  0.37522835    -0.00900
C120        C  0.16030523  0.35478810  0.33487759    -0.09000
C121        C  0.13252498  0.37419586  0.32557454    -0.17800
C122        C  0.11593117  0.39184251  0.35650775     0.04600
C123        C  0.12926321  0.39027418  0.39692047     0.18800
C124        C  0.15636224  0.36979491  0.40599640    -0.19200
C125        C  0.11532258  0.40891965  0.42824684    -0.20500
C126        C  0.08794776  0.42870881  0.42059179    -0.19000
C127        C  0.07299564  0.42919422  0.38185813     0.20200
C128        C  0.08643686  0.41062498  0.34917680     0.02300
C129        C  0.06875065  0.41039198  0.31146479    -0.13800
C130        C  0.03821426  0.42666396  0.30729792    -0.11500
C131        C  0.02538845  0.44483463  0.33984943     0.01800
C132        C  0.04353940  0.44681339  0.37642963    -0.23600
H133        H  0.17216730  0.34115838  0.31061572     0.09900
H134        H  0.12468196  0.37509402  0.29401117     0.13400
H135        H  0.16560861  0.36792847  0.43714514     0.12100
H136        H  0.12563802  0.40815151  0.45894145     0.13300
H137        H  0.07762193  0.44276447  0.44559152     0.12400
H138        H  0.07697886  0.39632276  0.28552881     0.09400
H139        H  0.02408746  0.42403045  0.27918669     0.12700
H140        H  0.03343658  0.46055322  0.40189371     0.14600
C141        C  0.42640262  0.01691931  0.33572146    -0.00900
C142        C  0.44215198  0.04699043  0.33115040    -0.09000
C143        C  0.42471300  0.07653992  0.33618427    -0.17800
C144        C  0.39084223  0.07668049  0.34579502     0.04600
C145        C  0.37450755  0.04601728  0.34631621     0.18800
C146        C  0.39234739  0.01663049  0.34148474    -0.19200
C147        C  0.34070553  0.04470417  0.35348028    -0.20500
C148        C  0.32271031  0.07322549  0.36081648    -0.19000
C149        C  0.33829056  0.10362642  0.36257146     0.20200
C150        C  0.37267100  0.10588479  0.35568314     0.02300
C151        C  0.38739861  0.13704739  0.36050249    -0.13800
C152        C  0.36857653  0.16475607  0.37121767    -0.11500
C153        C  0.33455599  0.16236075  0.37639071     0.01800
C154        C  0.31963170  0.13176060  0.37186196    -0.23600
H155        H  0.46852349  0.04768838  0.32681470     0.09900
H156        H  0.43851195  0.09881427  0.33350184     0.13400
H157        H  0.38006974  0.99332782  0.34468335     0.12100
H158        H  0.32812544  0.02141121  0.35370294     0.13300
H159        H  0.29653473  0.07138761  0.36623373     0.12400
H160        H  0.41345036  0.14060486  0.35693204     0.09400
H161        H  0.38050914  0.18825993  0.37454306     0.12700
H162        H  0.29331974  0.12976691  0.37637673     0.14600
C163        C  0.26868200  0.26178695  0.02380771    -0.00900
C164        C  0.29848031  0.26409122  0.04603323    -0.09000
C165        C  0.29894484  0.26692313  0.08866944    -0.17800
C166        C  0.26947126  0.26630455  0.11101553     0.04600
C167        C  0.23939905  0.26310171  0.08858058     0.18800
C168        C  0.23921451  0.26199242  0.04561617    -0.19200
C169        C  0.20966206  0.26015942  0.10917308    -0.20500
C170        C  0.20921230  0.25925446  0.15157483    -0.19000
C171        C  0.23829660  0.26273669  0.17460667     0.20200
C172        C  0.26873190  0.26757432  0.15476071     0.02300
C173        C  0.29690191  0.27358177  0.17965231    -0.13800
C174        C  0.29498523  0.27362934  0.22235966    -0.11500
C175        C  0.26528560  0.26679465  0.24158270     0.01800
C176        C  0.23703868  0.26151046  0.21746034    -0.23600
H177        H  0.32177788  0.26284183  0.03057425     0.09900
H178        H  0.32281227  0.26817909  0.10345332     0.13400
H179        H  0.21593739  0.26094390  0.02923659     0.12100
H180        H  0.18664302  0.25756526  0.09232375     0.13300
H181        H  0.18585873  0.25601968  0.16649106     0.12400
H182        H  0.32057311  0.27881779  0.16692757     0.09400
H183        H  0.31700156  0.27832196  0.24047282     0.12700
H184        H  0.21380262  0.25708491  0.23220474     0.14600
C185        C  0.42684572  0.42370878  0.91877131    -0.00900
C186        C  0.39851018  0.43088382  0.94120707    -0.09000
C187        C  0.37702493  0.40599760  0.95237942    -0.17800
C188        C  0.38343568  0.37285124  0.94182210     0.04600
C189        C  0.41251992  0.36574376  0.91959420     0.18800
C190        C  0.43357001  0.39101177  0.90808724    -0.19200
C191        C  0.42049388  0.33341556  0.90879903    -0.20500
C192        C  0.39958845  0.30798223  0.91820027    -0.19000
C193        C  0.37010270  0.31425629  0.93846632     0.20200
C194        C  0.36180414  0.34658818  0.95149815     0.02300
C195        C  0.33163423  0.35118460  0.97214440    -0.13800
C196        C  0.30947252  0.32531685  0.97628027    -0.11500
C197        C  0.31700894  0.29419296  0.96062068     0.01800
C198        C  0.34798107  0.28855765  0.94358584    -0.23600
H199        H  0.39291220  0.45590223  0.95025640     0.09900
H200        H  0.35565550  0.41344812  0.96934760     0.13400
H201        H  0.45572587  0.38502988  0.89141538     0.12100
H202        H  0.44281548  0.32780898  0.89231201     0.13300
H203        H  0.40609353  0.28331286  0.90850176     0.12400
H204        H  0.32383215  0.37477124  0.98372933     0.09400
H205        H  0.28553793  0.33017466  0.98928011     0.12700
H206        H  0.35387092  0.26438738  0.93151476     0.14600
C207        C  0.09800208  0.09752226  0.93067773    -0.00900
C208        C  0.08924542  0.13080098  0.92765780    -0.09000
C209        C  0.11189525  0.15538129  0.93807551    -0.17800
C210        C  0.14447657  0.14740499  0.95109877     0.04600
C211        C  0.15330804  0.11359435  0.95331320     0.18800
C212        C  0.13008264  0.08925938  0.94386559    -0.19200
C213        C  0.18550050  0.10413133  0.96420496    -0.20500
C214        C  0.20950383  0.12747361  0.97185257    -0.19000
C215        C  0.20183796  0.16094818  0.96963492     0.20200
C216        C  0.16902156  0.17152848  0.96041938     0.02300
C217        C  0.16274472  0.20575377  0.95922809    -0.13800
C218        C  0.18855721  0.22817487  0.96260781    -0.11500
C219        C  0.22109733  0.21736645  0.96904177     0.01800
C220        C  0.22732536  0.18382652  0.97407721    -0.23600
H221        H  0.06457982  0.13786774  0.91784656     0.09900
H222        H  0.10337681  0.18040114  0.93504383     0.13400
H223        H  0.13726580  0.06361073  0.94601468     0.12100
H224        H  0.19240500  0.07840438  0.96583550     0.13300
H225        H  0.23442715  0.11924894  0.97886916     0.12400
H226        H  0.13845095  0.21581882  0.95353419     0.09400
H227        H  0.18338466  0.25397196  0.95747436     0.12700
H228        H  0.25260883  0.17533540  0.97782170     0.14600
C229        C  0.52363421  0.50911041  0.74460141    -0.00900
C230        C  0.53097406  0.48116125  0.72124581    -0.09000
C231        C  0.52929071  0.48212028  0.67853414    -0.17800
C232        C  0.49495318  0.01424735  0.66527880     0.04600
C233        C  0.00059621  0.03874511  0.68556936     0.18800
C234        C  0.00207891  0.03750392  0.72843829    -0.19200
C235        C  0.99029324  0.06781298  0.66652149    -0.20500
C236        C  0.98860273  0.06985831  0.62421710    -0.19000
C237        C  0.99778859  0.04309623  0.59982639     0.20200
C238        C  0.49263819  0.01771620  0.62188857     0.02300
C239        C  0.52610158  0.48750353  0.58754589    -0.13800
C240        C  0.52195234  0.49051409  0.54517974    -0.11500
C241        C  0.50718143  0.51859354  0.52838440     0.01800
C242        C  0.99613990  0.04606452  0.55712222    -0.23600
H243        H  0.53821757  0.45847922  0.73613079     0.09900
H244        H  0.53517963  0.45968584  0.66256284     0.13400
H245        H  0.99559522  0.05908327  0.74620950     0.12100
H246        H  0.98332738  0.08911517  0.68449337     0.13300
H247        H  0.98033268  0.09268059  0.61045798     0.12400
H248        H  0.53776675  0.46527265  0.59842052     0.09400
H249        H  0.53053716  0.47096047  0.52545998     0.12700
H250        H  0.98701365  0.06857188  0.54339074     0.14600
C251        C  0.50892843  0.50749322  0.06014355    -0.00900
C252        C  0.03314525  0.49259117  0.08470952    -0.09000
C253        C  0.03084166  0.49294185  0.12743772    -0.17800
C254        C  0.99520585  0.00564192  0.14986884     0.04600
C255        C  0.46666710  0.99323078  0.12774654     0.18800
C256        C  0.46936318  0.99508819  0.08528284    -0.19200
C257        C  0.43533677  0.99080587  0.14439339    -0.20500
C258        C  0.43165563  0.98762413  0.18609463    -0.19000
C259        C  0.45914692  0.98768929  0.21231013     0.20200
C260        C  0.98830804  0.00422906  0.19265981     0.02300
C261        C  0.02249180  0.49468673  0.21852586    -0.13800
C262        C  0.01680551  0.49211429  0.26060623    -0.11500
C263        C  0.47145120  0.49288575  0.27141564     0.01800
C264        C  0.45437340  0.98369595  0.25410407    -0.23600
H265        H  0.05714154  0.48958122  0.07113811     0.09900
H266        H  0.05344528  0.48973597  0.14476059     0.13400
H267        H  0.44716530  0.99507522  0.06641982     0.12100
H268        H  0.41349789  0.99074015  0.12492309     0.13300
H269        H  0.40705051  0.98513148  0.19795655     0.12400
H270        H  0.04779914  0.49574354  0.20918698     0.09400
H271        H  0.03762113  0.49144989  0.28160258     0.12700
H272        H  0.42974113  0.97934258  0.26492888     0.14600
C273        C  0.23048128  0.22031608  0.76749605    -0.00900
C274        C  0.22901910  0.25306582  0.75434574    -0.09000
C275        C  0.23625213  0.26137824  0.71401050    -0.17800
C276        C  0.24634255  0.23725286  0.68546949     0.04600
C277        C  0.25075655  0.20468692  0.69981397     0.18800
C278        C  0.24205479  0.19645514  0.73981263    -0.19200
C279        C  0.26315773  0.18025952  0.67386383    -0.20500
C280        C  0.27054883  0.18728617  0.63357837    -0.19000
C281        C  0.26441783  0.21858187  0.61764453     0.20200
C282        C  0.25194534  0.24402408  0.64323123     0.02300
C283        C  0.24416652  0.27456216  0.62491202    -0.13800
C284        C  0.24778052  0.27921947  0.58288057    -0.11500
C285        C  0.26032504  0.25412689  0.55793334     0.01800
C286        C  0.26938825  0.22413350  0.57580704    -0.23600
H287        H  0.22209401  0.27256769  0.77499378     0.09900
H288        H  0.23408629  0.28695099  0.70608847     0.13400
H289        H  0.24324042  0.17097025  0.74878664     0.12100
H290        H  0.26709142  0.15545679  0.68478224     0.13300
H291        H  0.28001738  0.16775248  0.61433362     0.12400
H292        H  0.23392551  0.29481067  0.64200145     0.09400
H293        H  0.24046093  0.30255045  0.56970452     0.12700
H294        H  0.27854082  0.20439713  0.55660753     0.14600
C295        C  0.25696494  0.16408648  0.82768059    -0.00900
C296        C  0.28672994  0.18085349  0.82461323    -0.09000
C297        C  0.31678825  0.16517171  0.83406937    -0.17800
C298        C  0.31783152  0.13231441  0.84794245     0.04600
C299        C  0.28753395  0.11529185  0.84967964     0.18800
C300        C  0.25784265  0.13094747  0.83869338    -0.19200
C301        C  0.28670442  0.08310676  0.86406529    -0.20500
C302        C  0.31527707  0.06755547  0.87787842    -0.19000
C303        C  0.34550959  0.08355989  0.87690083     0.20200
C304        C  0.34749379  0.11592780  0.86123753     0.02300
C305        C  0.37904480  0.13028535  0.85975488    -0.13800
C306        C  0.40730015  0.11303364  0.87296326    -0.11500
C307        C  0.40495243  0.08133346  0.88889387     0.01800
C308        C  0.37386332  0.06700092  0.89109033    -0.23600
H309        H  0.28671115  0.20664697  0.81695141     0.09900
H310        H  0.33861464  0.17979700  0.83195313     0.13400
H311        H  0.23495719  0.11767635  0.84087113     0.12100
H312        H  0.26363360  0.07009010  0.86551522     0.13300
H313        H  0.31370340  0.04277981  0.88943674     0.12400
H314        H  0.38272090  0.15452867  0.84786578     0.09400
H315        H  0.43110917  0.12448728  0.87050955     0.12700
H316        H  0.37180783  0.04221076  0.90251625     0.14600
C317        C  0.08520260  0.39950331  0.87495648    -0.00900
C318        C  0.07692127  0.38131245  0.83980926    -0.09000
C319        C  0.09582244  0.35451849  0.82744292    -0.17800
C320        C  0.12396738  0.34443574  0.84994560     0.04600
C321        C  0.13268637  0.36287512  0.88552174     0.18800
C322        C  0.11347771  0.39030316  0.89751871    -0.19200
C323        C  0.16006204  0.35330616  0.90931351    -0.20500
C324        C  0.17816393  0.32522750  0.89941273    -0.19000
C325        C  0.16962626  0.30627043  0.86513634     0.20200
C326        C  0.14297624  0.31602256  0.83921527     0.02300
C327        C  0.13583807  0.29616893  0.80452236    -0.13800
C328        C  0.15268790  0.26656063  0.79788009    -0.11500
C329        C  0.17764875  0.25641646  0.82481349     0.01800
C330        C  0.18664546  0.27676969  0.85762738    -0.23600
H331        H  0.05537931  0.38766349  0.82146569     0.09900
H332        H  0.08729011  0.34188412  0.80037578     0.13400
H333        H  0.12021879  0.40406748  0.92473833     0.12100
H334        H  0.16704684  0.36718035  0.93633829     0.13300
H335        H  0.19863294  0.31793960  0.91913136     0.12400
H336        H  0.11668862  0.30225933  0.78261659     0.09400
H337        H  0.14530743  0.25088084  0.77263320     0.12700
H338        H  0.20567293  0.26859846  0.87883158     0.14600
N339        N  0.29217389  0.78169800  0.81818001    -0.03100
C340        C  0.28283191  0.80556365  0.84505766    -0.00500
C341        C  0.30384759  0.80587583  0.87865658    -0.23400
C342        C  0.32695357  0.78189450  0.87224827    -0.23600
C343        C  0.31917637  0.76719481  0.83560513    -0.00600
H344        H  0.30233645  0.82164456  0.90519335     0.13200
H345        H  0.34724823  0.77529302  0.89212702     0.13200
Zn346      Zn  0.49701431  0.96351485  0.87100666     1.49700
Zn347      Zn  0.53283722  0.54361466  0.87058425     1.49400
Zn348      Zn  0.46306990  0.00162896  0.94248276     1.49100
Zn349      Zn  0.05199544  0.00165376  0.94322470     1.49500
O350        O  0.50176090  0.00020404  0.90891019    -1.83800
O351        O  0.49075023  0.97975613  0.81325773    -0.74400
O352        O  0.49587416  0.57678432  0.87091207    -0.74200
O353        O  0.43834225  0.95928208  0.93947852    -0.73700
O354        O  0.53636565  0.53153773  0.81024668    -0.74400
O355        O  0.46168018  0.93156415  0.88892516    -0.74000
O356        O  0.45704160  0.55555294  0.90934752    -0.74600
O357        O  0.03780370  0.99767394  0.00308966    -0.74000
O358        O  0.05300597  0.56371122  0.89587140    -0.74700
O359        O  0.47619269  0.00636533  0.00157429    -0.74100
O360        O  0.07722562  0.52653339  0.93615852    -0.74600
O361        O  0.08391554  0.96559341  0.92437027    -0.74500
O362        O  0.05696322  0.94294910  0.87193145    -0.74300
C363        C  0.49899351  0.00669827  0.79684873     0.77500
C364        C  0.46702956  0.57789541  0.88555189     0.78000
C365        C  0.44073627  0.93359851  0.91748595     0.76900
C366        C  0.50178956  0.99690509  0.02156337     0.77300
C367        C  0.07625795  0.55508520  0.92039710     0.78500
C368        C  0.08253475  0.94520795  0.89460073     0.77500
N369        N  0.27960215  0.72780525  0.99544124    -0.03100
C370        C  0.26412275  0.70456340  0.97230625    -0.00500
C371        C  0.28094619  0.69859939  0.93676292    -0.23400
C372        C  0.30763989  0.71869147  0.93759269    -0.23600
C373        C  0.30615395  0.73670026  0.97333349    -0.00600
H374        H  0.27429744  0.68153195  0.91268421     0.13200
H375        H  0.32578926  0.72068359  0.91409582     0.13200
N376        N  0.47448397  0.97802791  0.32468562    -0.03100
C377        C  0.97320887  0.95674581  0.33570660    -0.00500
C378        C  0.94978791  0.94522220  0.36203062    -0.23400
C379        C  0.42406362  0.46834792  0.35836802    -0.23600
C380        C  0.43134566  0.49021994  0.32796504    -0.00600
H381        H  0.95260208  0.92483036  0.38281135     0.13200
H382        H  0.40287691  0.46919254  0.37787949     0.13200
Zn383      Zn  0.23226055  0.72625536  0.37284981     1.49700
Zn384      Zn  0.20810240  0.77345063  0.44387723     1.49400
Zn385      Zn  0.28467357  0.75585015  0.43636795     1.49100
Zn386      Zn  0.24819727  0.80126550  0.37195740     1.49500
O387        O  0.24335584  0.76378536  0.40651315    -1.83800
O388        O  0.19190671  0.70287186  0.39396414    -0.74400
O389        O  0.22736549  0.77906767  0.50038420    -0.74200
O390        O  0.30913652  0.71521229  0.41428248    -0.73700
O391        O  0.17751406  0.73489232  0.44599996    -0.74400
O392        O  0.26970459  0.69367776  0.37505094    -0.74000
O393        O  0.27448729  0.75042229  0.49635358    -0.74600
O394        O  0.28389706  0.83073201  0.39559637    -0.74000
O395        O  0.18031828  0.81297305  0.42578258    -0.74700
O396        O  0.31326116  0.79669770  0.43506983    -0.74100
O397        O  0.20542998  0.82719869  0.36894192    -0.74600
O398        O  0.25804719  0.78544906  0.31478985    -0.74500
O399        O  0.22878457  0.73944498  0.31304711    -0.74300
C400        C  0.17362146  0.70905376  0.42446387     0.77500
C401        C  0.25247177  0.76526679  0.51710787     0.78000
C402        C  0.29857688  0.69236958  0.39078668     0.76900
C403        C  0.30819960  0.82512293  0.41989532     0.77300
C404        C  0.18148055  0.83013222  0.39340593     0.78500
C405        C  0.24508645  0.76160687  0.29513766     0.77500
N406        N  0.47702874  0.02930227  0.49344139    -0.03100
C407        C  0.44916399  0.01897976  0.47395583    -0.00500
C408        C  0.44390955  0.03648393  0.43847477    -0.23400
C409        C  0.96927781  0.56192608  0.43128775    -0.23600
C410        C  0.98819639  0.55651476  0.46590847    -0.00600
H411        H  0.42380367  0.03350601  0.41691073     0.13200
H412        H  0.97336199  0.58004295  0.40797615     0.13200
C413        C  0.14755914  0.68572371  0.43582412    -0.00900
C414        C  0.12130155  0.69629961  0.46002503    -0.09000
C415        C  0.09670233  0.67467436  0.47139865    -0.17800
C416        C  0.09760388  0.64136979  0.45909759     0.04600
C417        C  0.12486122  0.63045546  0.43565336     0.18800
C418        C  0.14927363  0.65262871  0.42399217    -0.19200
C419        C  0.12735268  0.59756271  0.42347217    -0.20500
C420        C  0.10259268  0.57555701  0.43237436    -0.19000
C421        C  0.07454996  0.58594963  0.45335738     0.20200
C422        C  0.07194722  0.61880755  0.46792311     0.02300
C423        C  0.04289007  0.62805890  0.48861220    -0.13800
C424        C  0.01643165  0.60659028  0.49111973    -0.11500
C425        C  0.01856830  0.57493440  0.47475439     0.01800
C426        C  0.04812379  0.56427294  0.45744708    -0.23600
H427        H  0.11951069  0.72164356  0.46992999     0.09900
H428        H  0.07726158  0.68485942  0.48968291     0.13400
H429        H  0.16979736  0.64402186  0.40590266     0.12100
H430        H  0.14827574  0.58893623  0.40612713     0.13300
H431        H  0.10485667  0.55049257  0.42148462     0.12400
H432        H  0.03907095  0.65226085  0.50109962     0.09400
H433        H  0.99348980  0.61547447  0.50373910     0.12700
H434        H  0.04948426  0.53992332  0.44400945     0.14600
C435        C  0.32997840  0.85260833  0.43236772    -0.00900
C436        C  0.36274962  0.84693593  0.44478893    -0.09000
C437        C  0.38277223  0.87287392  0.45790093    -0.17800
C438        C  0.37038073  0.90547201  0.45974988     0.04600
C439        C  0.33679715  0.91083038  0.44831391     0.18800
C440        C  0.31724564  0.88468819  0.43435692    -0.19200
C441        C  0.32285668  0.94232778  0.45059302    -0.20500
C442        C  0.34182327  0.96896582  0.46242952    -0.19000
C443        C  0.37533239  0.96488394  0.47186850     0.20200
C444        C  0.39009219  0.93306649  0.47146697     0.02300
C445        C  0.42425158  0.93067816  0.48064551    -0.13800
C446        C  0.44330661  0.95887400  0.48607831    -0.11500
C447        C  0.42884893  0.99018235  0.48385802     0.01800
C448        C  0.39459160  0.99281138  0.47882769    -0.23600
H449        H  0.37305577  0.82231674  0.44404696     0.09900
H450        H  0.40777606  0.86663791  0.46656461     0.13400
H451        H  0.29170636  0.88926230  0.42574120     0.12100
H452        H  0.29717445  0.94650511  0.44245485     0.13300
H453        H  0.33042937  0.99314522  0.46282000     0.12400
H454        H  0.43731844  0.90752151  0.48107552     0.09400
H455        H  0.46977936  0.95608327  0.48795100     0.13300
H456        H  0.38332275  0.01700315  0.47643112     0.14600
C457        C  0.15399442  0.85307452  0.38306570    -0.00900
C458        C  0.14529604  0.85873101  0.34211291    -0.09000
C459        C  0.11788231  0.87821427  0.33167042    -0.17800
C460        C  0.09849130  0.89330182  0.36205660     0.04600
C461        C  0.10882046  0.88936710  0.40349224     0.18800
C462        C  0.13578364  0.86876112  0.41363059    -0.19200
C463        C  0.09202370  0.90585028  0.43456897    -0.20500
C464        C  0.06470138  0.92551326  0.42552034    -0.19000
C465        C  0.05255854  0.92796027  0.38541249     0.20200
C466        C  0.06906133  0.91177956  0.35299897     0.02300
C467        C  0.05434779  0.91339791  0.31346960    -0.13800
C468        C  0.02383667  0.92922488  0.30695834    -0.11500
C469        C  0.00791226  0.94514867  0.33914620     0.01800
C470        C  0.02296758  0.94510879  0.37795010    -0.23600
H471        H  0.15922562  0.84719325  0.31792524     0.09900
H472        H  0.11255089  0.88121445  0.29956056     0.13400
H473        H  0.14276436  0.86509277  0.44537188     0.12100
H474        H  0.10004531  0.90348290  0.46612534     0.13300
H475        H  0.05225776  0.93792067  0.45032104     0.12400
H476        H  0.06492426  0.90106660  0.28750449     0.09400
H477        H  0.01212922  0.92801995  0.27707276     0.12700
H478        H  0.01040084  0.95689410  0.40312331     0.14600
C479        C  0.41343756  0.52200807  0.32476800    -0.00900
C480        C  0.43021234  0.55131722  0.33200995    -0.09000
C481        C  0.41291840  0.58024771  0.34144302    -0.17800
C482        C  0.37810063  0.58072820  0.34322309     0.04600
C483        C  0.36126907  0.55153305  0.33200967     0.18800
C484        C  0.37897107  0.52254259  0.32352792    -0.19200
C485        C  0.32683808  0.55108510  0.33075124    -0.20500
C486        C  0.30863204  0.57888850  0.34103556    -0.19000
C487        C  0.32437119  0.60751183  0.35416036     0.20200
C488        C  0.35932135  0.60883738  0.35604755     0.02300
C489        C  0.37373759  0.63787024  0.37178381    -0.13800
C490        C  0.35418268  0.66464782  0.38414522    -0.11500
C491        C  0.31975918  0.66354841  0.38065833     0.01800
C492        C  0.30517082  0.63473771  0.36577931    -0.23600
H493        H  0.45688970  0.55133748  0.33329076     0.09900
H494        H  0.42740923  0.60169706  0.34790378     0.13400
H495        H  0.36592892  0.49986583  0.31782918     0.12100
H496        H  0.31387422  0.52901708  0.32187081     0.13300
H497        H  0.28198040  0.57774974  0.33959750     0.12400
H498        H  0.40002853  0.64039327  0.37537844     0.09400
H499        H  0.36608282  0.68652174  0.39570654     0.12700
H500        H  0.27854580  0.63332388  0.36353734     0.14600
C501        C  0.27476501  0.73490788  0.03825763    -0.00900
C502        C  0.30210278  0.73612294  0.06488591    -0.09000
C503        C  0.29837156  0.74168167  0.10655530    -0.17800
C504        C  0.26681997  0.74567491  0.12351588     0.04600
C505        C  0.23899090  0.74359617  0.09674130     0.18800
C506        C  0.24319761  0.73893754  0.05448062    -0.19200
C507        C  0.20715498  0.74557591  0.11245828    -0.20500
C508        C  0.20236768  0.74879336  0.15428882    -0.19000
C509        C  0.22927628  0.75133080  0.18134990     0.20200
C510        C  0.26190183  0.75083669  0.16618290     0.02300
C511        C  0.28816607  0.75580086  0.19437461    -0.13800
C512        C  0.28229100  0.76010656  0.23590922    -0.11500
C513        C  0.25029866  0.75888249  0.25086322     0.01800
C514        C  0.22382469  0.75449290  0.22352939    -0.23600
H515        H  0.32668362  0.73197911  0.05350717     0.09900
H516        H  0.32065824  0.74165929  0.12485241     0.13400
H517        H  0.22186426  0.73832520  0.03434955     0.12100
H518        H  0.18578872  0.74391148  0.09233721     0.13300
H519        H  0.17741580  0.74955326  0.16552806     0.12400
H520        H  0.31349081  0.75699101  0.18523177     0.09400
H521        H  0.30299487  0.76368073  0.25667789     0.12700
H522        H  0.19896070  0.75408366  0.23508752     0.14600
C523        C  0.41981024  0.90521025  0.92712653    -0.00900
C524        C  0.38905255  0.90998731  0.94522767    -0.09000
C525        C  0.37058656  0.88332009  0.95817080    -0.17800
C526        C  0.38274167  0.85079953  0.95429412     0.04600
C527        C  0.41403409  0.84617934  0.93596922     0.18800
C528        C  0.43188104  0.87316059  0.92208462    -0.19200
C529        C  0.42758287  0.81465213  0.93193562    -0.20500
C530        C  0.41050364  0.78743226  0.94491341    -0.19000
C531        C  0.37920985  0.79097524  0.96174023     0.20200
C532        C  0.36490233  0.82266217  0.96720375     0.02300
C533        C  0.33285770  0.82450770  0.98372093    -0.13800
C534        C  0.31454061  0.79607693  0.98993344    -0.11500
C535        C  0.32794054  0.76514196  0.98096326     0.01800
C536        C  0.36103641  0.76274612  0.96979979    -0.23600
H537        H  0.37927769  0.93457293  0.94963278     0.09900
H538        H  0.34714320  0.88897392  0.97162050     0.13400
H539        H  0.45589353  0.86926808  0.90874345     0.12100
H540        H  0.45149165  0.81097328  0.91829026     0.13300
H541        H  0.42141009  0.76330314  0.94048525     0.12400
H542        H  0.32052954  0.84754420  0.98966127     0.09400
H543        H  0.28900445  0.79848626  0.99864146     0.12700
H544        H  0.37156711  0.73876425  0.96314450     0.14600
C545        C  0.10240309  0.57882845  0.93178208    -0.00900
C546        C  0.09734525  0.61263599  0.92657930    -0.09000
C547        C  0.12150644  0.63509953  0.93861737    -0.17800
C548        C  0.15194799  0.62439659  0.95587535     0.04600
C549        C  0.15691550  0.59006259  0.96104032     0.18800
C550        C  0.13223521  0.56784030  0.94937395    -0.19200
C551        C  0.18669998  0.57796391  0.97731119    -0.20500
C552        C  0.21213406  0.59911166  0.98756010    -0.19000
C553        C  0.20840382  0.63294831  0.98203442     0.20200
C554        C  0.17804243  0.64626325  0.96696204     0.02300
C555        C  0.17578098  0.68070963  0.96203772    -0.13800
C556        C  0.20332700  0.70052596  0.96839759    -0.11500
C557        C  0.23356708  0.68690026  0.98103166     0.01800
C558        C  0.23560761  0.65330932  0.98915398    -0.23600
H559        H  0.07437720  0.62185903  0.91357812     0.09900
H560        H  0.11572597  0.66064519  0.93369943     0.13400
H561        H  0.13649399  0.54175949  0.95356283     0.12100
H562        H  0.19060997  0.55183782  0.98141042     0.13300
H563        H  0.23517863  0.58883490  0.99908403     0.12400
H564        H  0.15357104  0.69284893  0.95141407     0.09400
H565        H  0.20159169  0.72631411  0.96074000     0.12700
H566        H  0.25928714  0.64260363  0.99775291     0.14600
C567        C  0.49795400  0.00934946  0.75183874    -0.00900
C568        C  0.50542175  0.98215132  0.72717783    -0.09000
C569        C  0.50442192  0.98457914  0.68459196    -0.17800
C570        C  0.51909628  0.51099910  0.65786688     0.04600
C571        C  0.99577845  0.54275223  0.68463483     0.18800
C572        C  0.00006493  0.53999892  0.72713503    -0.19200
C573        C  0.98669096  0.57310958  0.66789992    -0.20500
C574        C  0.98026376  0.57606636  0.62628415    -0.19000
C575        C  0.98408290  0.54905272  0.60016818     0.20200
C576        C  0.51604039  0.51301375  0.61432269     0.02300
C577        C  0.50316160  0.99313612  0.59407069    -0.13800
C578        C  0.49915144  0.99732188  0.55185938    -0.11500
C579        C  0.48393986  0.02564124  0.53633550     0.01800
C580        C  0.97722387  0.55265535  0.55834914    -0.23600
H581        H  0.51241170  0.95894277  0.74093164     0.09900
H582        H  0.51031012  0.96262745  0.66756634     0.13400
H583        H  0.99693713  0.56147615  0.74644395     0.12100
H584        H  0.98366251  0.59452904  0.68728702     0.13300
H585        H  0.97246431  0.59971533  0.61438847     0.12400
H586        H  0.51501368  0.97070525  0.60406361     0.09400
H587        H  0.50792390  0.97840501  0.53135386     0.12700
H588        H  0.96768408  0.57580145  0.54684511     0.14600
C589        C  0.50017083  0.99589857  0.06677495    -0.00900
C590        C  0.03239873  0.00305468  0.09139459    -0.09000
C591        C  0.02737187  0.00349656  0.13377884    -0.17800
C592        C  0.99995826  0.49648821  0.14654929     0.04600
C593        C  0.47081341  0.51003711  0.11707799     0.18800
C594        C  0.47708493  0.51216642  0.07521616    -0.19200
C595        C  0.43822270  0.51215447  0.13007433    -0.20500
C596        C  0.43079454  0.50789307  0.17084277    -0.19000
C597        C  0.45586756  0.50276456  0.19995794     0.20200
C598        C  0.99591990  0.49594867  0.18992238     0.02300
C599        C  0.01291110  0.00171023  0.22372557    -0.13800
C600        C  0.00444802  0.99747182  0.26481852    -0.11500
C601        C  0.48079842  0.98425194  0.28210590     0.01800
C602        C  0.44734053  0.49744363  0.24065943    -0.23600
H603        H  0.05728477  0.00095283  0.08020394     0.09900
H604        H  0.04897151  0.00152815  0.15322758     0.13400
H605        H  0.45664671  0.51614731  0.05403740     0.12100
H606        H  0.41818710  0.51613537  0.10833768     0.13300
H607        H  0.40518521  0.50863187  0.17967689     0.12400
H608        H  0.03880284  0.00246926  0.21702634     0.09400
H609        H  0.02387384  0.99532421  0.28764007     0.12700
H610        H  0.42153586  0.49571018  0.24811822     0.14600
C611        C  0.28280962  0.77961869  0.77563129    -0.00900
C612        C  0.28021603  0.80832246  0.75253643    -0.09000
C613        C  0.27394526  0.80702703  0.71068999    -0.17800
C614        C  0.27064398  0.77666299  0.69012969     0.04600
C615        C  0.27376580  0.74749122  0.71350094     0.18800
C616        C  0.27908156  0.74924878  0.75595814    -0.19200
C617        C  0.27238887  0.71679873  0.69418948    -0.20500
C618        C  0.26880511  0.71446105  0.65196284    -0.19000
C619        C  0.26538018  0.74274756  0.62817540     0.20200
C620        C  0.26524711  0.77424035  0.64710420     0.02300
C621        C  0.25950473  0.80197449  0.62215629    -0.13800
C622        C  0.25493695  0.79860756  0.58015258    -0.11500
C623        C  0.25661050  0.76776022  0.56156299     0.01800
C624        C  0.26187039  0.73983214  0.58553817    -0.23600
H625        H  0.28406335  0.83200439  0.76681149     0.09900
H626        H  0.27304379  0.83022849  0.69513958     0.13400
H627        H  0.28081925  0.72693799  0.77355666     0.12100
H628        H  0.27485241  0.69444668  0.71177553     0.13300
H629        H  0.26851508  0.69036471  0.63783912     0.12400
H630        H  0.25781869  0.82656489  0.63418161     0.09400
H631        H  0.25058592  0.82035762  0.56190470     0.12700
H632        H  0.26252498  0.71585561  0.57105520     0.14600
C633        C  0.33724927  0.73767909  0.82195481    -0.00900
C634        C  0.37061770  0.74051269  0.81299312    -0.09000
C635        C  0.39222142  0.71386902  0.81805356    -0.17800
C636        C  0.38108125  0.68372020  0.83364369     0.04600
C637        C  0.34665827  0.68026559  0.83932793     0.18800
C638        C  0.32509168  0.70699708  0.83269622    -0.19200
C639        C  0.33425432  0.65099828  0.85461620    -0.20500
C640        C  0.35542755  0.62550131  0.86611737    -0.19000
C641        C  0.38956046  0.62861553  0.86264799     0.20200
C642        C  0.40287932  0.65756031  0.84572326     0.02300
C643        C  0.43750536  0.65946640  0.84296233    -0.13800
C644        C  0.45793440  0.63382979  0.85641512    -0.11500
C645        C  0.44479812  0.60544074  0.87337319     0.01800
C646        C  0.41049281  0.60303539  0.87639275    -0.23600
H647        H  0.38051004  0.76422780  0.80537471     0.09900
H648        H  0.41773930  0.71830030  0.81182280     0.13400
H649        H  0.29938830  0.70500947  0.84075333     0.12100
H650        H  0.30803048  0.64815391  0.85883515     0.13300
H651        H  0.34505014  0.60343582  0.87863385     0.12400
H652        H  0.44964837  0.68047791  0.83068666     0.09400
H653        H  0.48432407  0.63635373  0.85358209     0.12700
H654        H  0.40000996  0.58103608  0.88898326     0.14600
C655        C  0.11143894  0.92434435  0.88471694    -0.00900
C656        C  0.10755991  0.89549624  0.86165486    -0.09000
C657        C  0.13484080  0.87644972  0.85043518    -0.17800
C658        C  0.16714436  0.88590681  0.86158958     0.04600
C659        C  0.17088709  0.91568395  0.88406989     0.18800
C660        C  0.14322368  0.93429026  0.89565749    -0.19200
C661        C  0.20224823  0.92673261  0.89510840    -0.20500
C662        C  0.23004810  0.90833624  0.88559790    -0.19000
C663        C  0.22716443  0.87830123  0.86510207     0.20200
C664        C  0.19581994  0.86673051  0.85212318     0.02300
C665        C  0.19468206  0.83601650  0.83159573    -0.13800
C666        C  0.22322064  0.81673096  0.82689999    -0.11500
C667        C  0.25366785  0.82776312  0.84178084     0.01800
C668        C  0.25551051  0.85913921  0.85921021    -0.23600
H669        H  0.08321664  0.88749612  0.85233991     0.09900
H670        H  0.12986043  0.85451295  0.83298693     0.13400
H671        H  0.14650526  0.95696535  0.91264265     0.12100
H672        H  0.20528549  0.94957017  0.91177293     0.13300
H673        H  0.25397046  0.91727314  0.89532986     0.12400
H674        H  0.17196096  0.82567712  0.82030650     0.09400
H675        H  0.22115851  0.79249582  0.81348226     0.12700
H676        H  0.27911454  0.86813194  0.87011188     0.14600
N677        N  0.72272333  0.20960293  0.81805031    -0.03100
C678        C  0.69686259  0.22282441  0.83865185    -0.00500
C679        C  0.68625317  0.20161101  0.86806385    -0.23400
C680        C  0.70656022  0.17471493  0.86687970    -0.23600
C681        C  0.72937957  0.18047194  0.83684873    -0.00600
H682        H  0.66713134  0.20640877  0.88990013     0.13200
H683        H  0.70671824  0.15488073  0.88868705     0.13200
Zn684      Zn  0.99916435  0.46272821  0.86373325     1.49700
Zn685      Zn  0.01383214  0.04456832  0.87472760     1.49400
Zn686      Zn  0.96806406  0.50276631  0.93500493     1.49100
Zn687      Zn  0.55693390  0.49355006  0.94154636     1.49500
O688        O  0.00718921  0.49804521  0.90226063    -1.83800
O689        O  0.99690638  0.47977973  0.80593690    -0.74400
O690        O  0.96944185  0.06792736  0.87759715    -0.74200
O691        O  0.93972702  0.46265919  0.93145716    -0.73700
O692        O  0.01787322  0.03338970  0.81426296    -0.74400
O693        O  0.95947629  0.43508769  0.87858256    -0.74000
O694        O  0.94054233  0.03549514  0.91734298    -0.74600
O695        O  0.53954783  0.49347068  0.00012125    -0.74000
O696        O  0.54372503  0.06898740  0.90089414    -0.74700
O697        O  0.98143772  0.50653276  0.99420485    -0.74100
O698        O  0.56836324  0.03399536  0.94364652    -0.74600
O699        O  0.57989390  0.44991470  0.92488977    -0.74500
O700        O  0.54987309  0.43767225  0.86988143    -0.74300
C701        C  0.00738935  0.50609950  0.79003985     0.77500
C702        C  0.94236615  0.06022572  0.89398583     0.78000
C703        C  0.93903818  0.43795375  0.90760768     0.76900
C704        C  0.00651219  0.49612328  0.01455097     0.77300
C705        C  0.56679729  0.06196464  0.92657737     0.78500
C706        C  0.57408522  0.43165667  0.89377470     0.77500
N707        N  0.76659406  0.24041766  0.99227210    -0.03100
C708        C  0.75057154  0.21490608  0.97383917    -0.00500
C709        C  0.76488042  0.20671138  0.93738960    -0.23400
C710        C  0.79002491  0.22790222  0.93198560    -0.23600
C711        C  0.79107714  0.24831423  0.96591867    -0.00600
H712        H  0.75774676  0.18719978  0.91691726     0.13200
H713        H  0.80553382  0.22859280  0.90547337     0.13200
N714        N  0.97771226  0.48207985  0.31731344    -0.03100
C715        C  0.47386988  0.45799676  0.33484137    -0.00500
C716        C  0.45105748  0.44829026  0.36309962    -0.23400
C717        C  0.92337006  0.96626659  0.35963015    -0.23600
C718        C  0.93154421  0.99039913  0.33241404    -0.00600
H719        H  0.45467870  0.43008101  0.38669162     0.13200
H720        H  0.90161048  0.96552282  0.37809830     0.13200
Zn721      Zn  0.73012241  0.22800567  0.37224989     1.49700
Zn722      Zn  0.70622482  0.27406641  0.44663861     1.49400
Zn723      Zn  0.78226368  0.25533090  0.43884189     1.49100
Zn724      Zn  0.74699535  0.30195530  0.37437385     1.49500
O725        O  0.74141425  0.26426924  0.40842660    -1.83800
O726        O  0.68909004  0.20531020  0.39228454    -0.74400
O727        O  0.72432846  0.27498793  0.50529546    -0.74200
O728        O  0.80658614  0.21545450  0.41388662    -0.73700
O729        O  0.67434475  0.23620301  0.44525856    -0.74400
O730        O  0.76727418  0.19452205  0.37372052    -0.74000
O731        O  0.77097575  0.24611076  0.49837929    -0.74600
O732        O  0.78250751  0.33061897  0.39886619    -0.74000
O733        O  0.67986410  0.31547827  0.42970335    -0.74700
O734        O  0.81059615  0.29679915  0.44006461    -0.74100
O735        O  0.70489690  0.32835663  0.37221498    -0.74600
O736        O  0.75649063  0.28820779  0.31609138    -0.74500
O737        O  0.72655406  0.24284389  0.31241326    -0.74300
C738        C  0.67043276  0.21093783  0.42262176     0.77500
C739        C  0.74850088  0.25862370  0.52072721     0.78000
C740        C  0.79613490  0.19301673  0.38961812     0.76900
C741        C  0.80605726  0.32513809  0.42425830     0.77300
C742        C  0.68129207  0.33226808  0.39694509     0.78500
C743        C  0.74273237  0.26550392  0.29522743     0.77500
N744        N  0.97595136  0.53156059  0.48812230    -0.03100
C745        C  0.94893227  0.52107724  0.46684794    -0.00500
C746        C  0.94418736  0.53977417  0.43221966    -0.23400
C747        C  0.46952301  0.05774880  0.43519612    -0.23600
C748        C  0.48921393  0.05321193  0.46940535    -0.00600
H749        H  0.92457488  0.53720409  0.40988453     0.13200
H750        H  0.47350323  0.07466696  0.41049468     0.13200
C751        C  0.64442428  0.18706056  0.43286387    -0.00900
C752        C  0.62234324  0.19370516  0.46444924    -0.09000
C753        C  0.59889111  0.17070358  0.47565128    -0.17800
C754        C  0.59668723  0.13999064  0.45554481     0.04600
C755        C  0.61924773  0.13328457  0.42369873     0.18800
C756        C  0.64261711  0.15668640  0.41267536    -0.19200
C757        C  0.61825224  0.10331329  0.40272964    -0.20500
C758        C  0.59460153  0.08021048  0.41167181    -0.19000
C759        C  0.57132986  0.08647314  0.44183757     0.20200
C760        C  0.57239741  0.11608153  0.46494393     0.02300
C761        C  0.54819386  0.12094371  0.49514294    -0.13800
C762        C  0.52245066  0.09874078  0.49951704    -0.11500
C763        C  0.52063896  0.07064474  0.47497247     0.01800
C764        C  0.54580543  0.06407580  0.44731827    -0.23600
H765        H  0.62321743  0.21683205  0.48083483     0.09900
H766        H  0.58280716  0.17773712  0.50008317     0.13400
H767        H  0.65967656  0.15102583  0.38844987     0.12100
H768        H  0.63553603  0.09792475  0.37866901     0.13300
H769        H  0.59399774  0.05760101  0.39413290     0.12400
H770        H  0.54755785  0.14239695  0.51443723     0.09400
H771        H  0.50280410  0.10479447  0.52023856     0.12700
H772        H  0.54404966  0.04259359  0.42773396     0.14600
C773        C  0.82774580  0.35277750  0.43636863    -0.00900
C774        C  0.86067662  0.34744417  0.44819735    -0.09000
C775        C  0.88110546  0.37384715  0.45845865    -0.17800
C776        C  0.86901426  0.40660163  0.45780903     0.04600
C777        C  0.83512873  0.41162400  0.44776351     0.18800
C778        C  0.81511571  0.38496785  0.43677239    -0.19200
C779        C  0.82144120  0.44329901  0.44816413    -0.20500
C780        C  0.84089066  0.47033285  0.45699382    -0.19000
C781        C  0.87465231  0.46647464  0.46511542     0.20200
C782        C  0.88925660  0.43458292  0.46595165     0.02300
C783        C  0.92373106  0.43235413  0.47269874    -0.13800
C784        C  0.94294623  0.46057098  0.47626685    -0.11500
C785        C  0.92849343  0.49190844  0.47491283     0.01800
C786        C  0.89416788  0.49452709  0.47019414    -0.23600
H787        H  0.87087615  0.32277991  0.44872822     0.09900
H788        H  0.90623910  0.36786177  0.46683820     0.13400
H789        H  0.78942621  0.38930306  0.42868422     0.12100
H790        H  0.79554198  0.44725553  0.44102610     0.13300
H791        H  0.82959972  0.49455548  0.45628193     0.12400
H792        H  0.93682606  0.40920140  0.47273549     0.09400
H793        H  0.96940960  0.45770417  0.47628242     0.13300
H794        H  0.88287959  0.51869652  0.46759735     0.14600
C795        C  0.65440916  0.35571245  0.38585284    -0.00900
C796        C  0.64530456  0.35966777  0.34468816    -0.09000
C797        C  0.61826338  0.37929280  0.33333842    -0.17800
C798        C  0.59963514  0.39623381  0.36294353     0.04600
C799        C  0.61066996  0.39440307  0.40435408     0.18800
C800        C  0.63728974  0.37362016  0.41553927    -0.19200
C801        C  0.59473653  0.41296480  0.43436711    -0.20500
C802        C  0.56736163  0.43233768  0.42442306    -0.19000
C803        C  0.55436879  0.43248720  0.38457285     0.20200
C804        C  0.57017192  0.41440031  0.35316166     0.02300
C805        C  0.55463686  0.41367751  0.31406180    -0.13800
C806        C  0.52398569  0.42907011  0.30713418    -0.11500
C807        C  0.50868607  0.44680948  0.33831646     0.01800
C808        C  0.52454514  0.44911055  0.37657076    -0.23600
H809        H  0.65853141  0.34656985  0.32108821     0.09900
H810        H  0.61254427  0.38082615  0.30115632     0.13400
H811        H  0.64474089  0.37142034  0.44733462     0.12100
H812        H  0.60334106  0.41228907  0.46582811     0.13300
H813        H  0.55539658  0.44617326  0.44846674     0.12400
H814        H  0.56462611  0.39978242  0.28895961     0.09400
H815        H  0.51165679  0.42609146  0.27781923     0.12700
H816        H  0.51242412  0.46224050  0.40110135     0.14600
C817        C  0.91282829  0.02191245  0.32997518    -0.00900
C818        C  0.92909839  0.05187054  0.33400054    -0.09000
C819        C  0.91139200  0.08097612  0.34155143    -0.17800
C820        C  0.87664817  0.08093087  0.34503179     0.04600
C821        C  0.86024470  0.05078191  0.33766212     0.18800
C822        C  0.87834860  0.02177712  0.33057611    -0.19200
C823        C  0.82586691  0.04945462  0.33880356    -0.20500
C824        C  0.80730763  0.07731063  0.34793385    -0.19000
C825        C  0.82265649  0.10706262  0.35714312     0.20200
C826        C  0.85756068  0.10937892  0.35616334     0.02300
C827        C  0.87168559  0.13976289  0.36759938    -0.13800
C828        C  0.85193071  0.16661286  0.37928410    -0.11500
C829        C  0.81750805  0.16434158  0.37917139     0.01800
C830        C  0.80316417  0.13441788  0.36787925    -0.23600
H831        H  0.95575691  0.05251141  0.33374631     0.09900
H832        H  0.92555287  0.10300460  0.34531128     0.13400
H833        H  0.86561501  0.99867164  0.32709136     0.12100
H834        H  0.81322440  0.02660833  0.33290544     0.13300
H835        H  0.78072062  0.07537940  0.34866489     0.12400
H836        H  0.89794836  0.14333458  0.36840887     0.09400
H837        H  0.86363335  0.18944183  0.38777310     0.12700
H838        H  0.77657220  0.13221076  0.36812053     0.14600
C839        C  0.76398808  0.24993527  0.03479951    -0.00900
C840        C  0.79228296  0.25090820  0.05982070    -0.09000
C841        C  0.79006805  0.25580555  0.10198976    -0.17800
C842        C  0.75916186  0.25944060  0.12096145     0.04600
C843        C  0.73048865  0.25890888  0.09547789     0.18800
C844        C  0.73318703  0.25486252  0.05287857    -0.19200
C845        C  0.69922934  0.26126312  0.11282092    -0.20500
C846        C  0.69575773  0.26268306  0.15503061    -0.19000
C847        C  0.72346833  0.26283812  0.18104678     0.20200
C848        C  0.75560586  0.26244893  0.16431180     0.02300
C849        C  0.78273081  0.26492372  0.19178222    -0.13800
C850        C  0.77816116  0.26656417  0.23396183    -0.11500
C851        C  0.74662444  0.26502645  0.25035688     0.01800
C852        C  0.71929518  0.26332246  0.22373770    -0.23600
H853        H  0.81630119  0.24654064  0.04686093     0.09900
H854        H  0.81294767  0.25531153  0.11910398     0.13400
H855        H  0.71116833  0.25472772  0.03390525     0.12100
H856        H  0.67723904  0.26100404  0.09363724     0.13300
H857        H  0.67117784  0.26356185  0.16742820     0.12400
H858        H  0.80779104  0.26597101  0.18158804     0.09400
H859        H  0.79953957  0.26832251  0.25403718     0.12700
H860        H  0.69475921  0.26287967  0.23629394     0.14600
C861        C  0.91510742  0.41147832  0.91544828    -0.00900
C862        C  0.88749072  0.41739182  0.93978907    -0.09000
C863        C  0.86690162  0.39176953  0.95116351    -0.17800
C864        C  0.87368615  0.35902734  0.93921517     0.04600
C865        C  0.90155369  0.35330229  0.91414353     0.18800
C866        C  0.92143272  0.37939588  0.90198994    -0.19200
C867        C  0.91003336  0.32140456  0.90211110    -0.20500
C868        C  0.89169272  0.29492962  0.91466265    -0.19000
C869        C  0.86387380  0.29969368  0.93874196     0.20200
C870        C  0.85412472  0.33171005  0.95123893     0.02300
C871        C  0.82497467  0.33475082  0.97444631    -0.13800
C872        C  0.80533829  0.30734556  0.98234091    -0.11500
C873        C  0.81467800  0.27608344  0.96843808     0.01800
C874        C  0.84495434  0.27248690  0.94870394    -0.23600
H875        H  0.88199592  0.44196955  0.95063183     0.09900
H876        H  0.84634143  0.39819322  0.97013183     0.13400
H877        H  0.94286800  0.37441811  0.88352529     0.12100
H878        H  0.93124034  0.31683791  0.88313462     0.13300
H879        H  0.89899491  0.27052445  0.90478214     0.12400
H880        H  0.81595776  0.35817061  0.98518470     0.09400
H881        H  0.78197047  0.31096420  0.99726547     0.12700
H882        H  0.85288307  0.24834959  0.93850369     0.14600
C883        C  0.59230276  0.08654502  0.93786954    -0.00900
C884        C  0.58759410  0.12000585  0.92974020    -0.09000
C885        C  0.61111562  0.14307969  0.94220069    -0.17800
C886        C  0.64056767  0.13331764  0.96275677     0.04600
C887        C  0.64561358  0.09926895  0.96990566     0.18800
C888        C  0.62142665  0.07651486  0.95821506    -0.19200
C889        C  0.67514498  0.08796612  0.98781346    -0.20500
C890        C  0.70046240  0.10958591  0.99706476    -0.19000
C891        C  0.69645178  0.14322634  0.99006018     0.20200
C892        C  0.66590897  0.15579399  0.97466343     0.02300
C893        C  0.66265458  0.19019231  0.97048130    -0.13800
C894        C  0.68989142  0.21061368  0.97584518    -0.11500
C895        C  0.72079539  0.19760812  0.98696667     0.01800
C896        C  0.72346806  0.16412409  0.99596056    -0.23600
H897        H  0.56541843  0.12848322  0.91409016     0.09900
H898        H  0.60593601  0.16831358  0.93452716     0.13400
H899        H  0.62565828  0.05068799  0.96436001     0.12100
H900        H  0.67915170  0.06203515  0.99338670     0.13300
H901        H  0.72353775  0.09984949  0.00920459     0.12400
H902        H  0.63981475  0.20177776  0.96096474     0.09400
H903        H  0.68743179  0.23625410  0.96769645     0.12700
H904        H  0.74747873  0.15382721  0.00384179     0.14600
C905        C  0.00636190  0.50941150  0.74511902    -0.00900
C906        C  0.00959333  0.48168211  0.72002967    -0.09000
C907        C  0.00670076  0.48426954  0.67763506    -0.17800
C908        C  0.00930755  0.01077257  0.66172824     0.04600
C909        C  0.48637041  0.04141543  0.69060024     0.18800
C910        C  0.48875453  0.03897847  0.73329158    -0.19200
C911        C  0.47472342  0.07067672  0.67323022    -0.20500
C912        C  0.47056191  0.07333079  0.63123314    -0.19000
C913        C  0.47920061  0.04725782  0.60546488     0.20200
C914        C  0.00858866  0.01321047  0.61812247     0.02300
C915        C  0.00089381  0.49256283  0.58757277    -0.13800
C916        C  0.99526967  0.49700747  0.54573903    -0.11500
C917        C  0.98258905  0.52671882  0.53095348     0.01800
C918        C  0.47423803  0.05051491  0.56325844    -0.23600
H919        H  0.01428558  0.45778441  0.73332485     0.09900
H920        H  0.00902015  0.46177033  0.66039073     0.13400
H921        H  0.48233678  0.05992802  0.75223461     0.12100
H922        H  0.46800431  0.09140766  0.69233686     0.13300
H923        H  0.46069284  0.09604593  0.61878136     0.12400
H924        H  0.01080481  0.46903966  0.59679556     0.09400
H925        H  0.00155403  0.47737582  0.52497705     0.12700
H926        H  0.46233954  0.07237803  0.55108449     0.14600
C927        C  0.00489136  0.49629743  0.05981880    -0.00900
C928        C  0.53490559  0.50176004  0.08808765    -0.09000
C929        C  0.52917753  0.50079444  0.13026375    -0.17800
C930        C  0.49526798  0.99321703  0.15342814     0.04600
C931        C  0.96838695  0.00818787  0.12156736     0.18800
C932        C  0.97380457  0.00806122  0.07952273    -0.19200
C933        C  0.93597731  0.01012106  0.13514671    -0.20500
C934        C  0.92931908  0.00814055  0.17631384    -0.19000
C935        C  0.95491740  0.00451064  0.20499433     0.20200
C936        C  0.49134976  0.99132667  0.19677738     0.02300
C937        C  0.51360010  0.49947498  0.21976171    -0.13800
C938        C  0.50465422  0.49537196  0.26068684    -0.11500
C939        C  0.98463467  0.48967667  0.27518632     0.01800
C940        C  0.94693438  0.99974214  0.24584759    -0.23600
H941        H  0.55973671  0.49790941  0.07731816     0.09900
H942        H  0.55016845  0.49590292  0.14998702     0.13400
H943        H  0.95274854  0.00966265  0.05881986     0.12100
H944        H  0.91550385  0.01233799  0.11365589     0.13300
H945        H  0.90384630  0.00878303  0.18572664     0.12400
H946        H  0.53957037  0.50060909  0.21357993     0.09400
H947        H  0.52385228  0.49374073  0.28384183     0.12700
H948        H  0.92123236  0.99777768  0.25367793     0.14600
C949        C  0.73294282  0.21840378  0.77727791    -0.00900
C950        C  0.73587881  0.25121573  0.76536149    -0.09000
C951        C  0.74096829  0.25937937  0.72440384    -0.17800
C952        C  0.74381986  0.23481603  0.69385444     0.04600
C953        C  0.74326961  0.20158475  0.70659666     0.18800
C954        C  0.73751146  0.19379239  0.74759526    -0.19200
C955        C  0.74770955  0.17620150  0.67817914    -0.20500
C956        C  0.75217474  0.18303693  0.63712561    -0.19000
C957        C  0.75125990  0.21540564  0.62312208     0.20200
C958        C  0.74679448  0.24182959  0.65117796     0.02300
C959        C  0.74412889  0.27389557  0.63497546    -0.13800
C960        C  0.74502682  0.27928593  0.59277828    -0.11500
C961        C  0.74979661  0.25318624  0.56545693     0.01800
C962        C  0.75361936  0.22138247  0.58096037    -0.23600
H963        H  0.73391448  0.27075941  0.78764796     0.09900
H964        H  0.74262733  0.28512491  0.71751508     0.13400
H965        H  0.73535029  0.16829057  0.75613725     0.12100
H966        H  0.74759830  0.15080405  0.68775888     0.13300
H967        H  0.75543094  0.16276588  0.61597529     0.12400
H968        H  0.74014190  0.29514576  0.65406978     0.09400
H969        H  0.74190039  0.30402825  0.58137563     0.12700
H970        H  0.75677343  0.20101662  0.55988579     0.14600
C971        C  0.76118781  0.16212265  0.83549042    -0.00900
C972        C  0.79079203  0.17863979  0.82970979    -0.09000
C973        C  0.82114174  0.16299656  0.83723993    -0.17800
C974        C  0.82278325  0.13031987  0.85158799     0.04600
C975        C  0.79261039  0.11363897  0.85680565     0.18800
C976        C  0.76246102  0.12928230  0.84781699    -0.19200
C977        C  0.79251398  0.08183296  0.87253690    -0.20500
C978        C  0.82179134  0.06628674  0.88393711    -0.19000
C979        C  0.85195942  0.08183950  0.87893866     0.20200
C980        C  0.85306349  0.11382100  0.86197410     0.02300
C981        C  0.88441997  0.12767817  0.85606136    -0.13800
C982        C  0.91332469  0.11050879  0.86677334    -0.11500
C983        C  0.91195556  0.07931487  0.88433925     0.01800
C984        C  0.88109386  0.06527882  0.89044606    -0.23600
H985        H  0.79056609  0.20432401  0.82152248     0.09900
H986        H  0.84280574  0.17756274  0.83326098     0.13400
H987        H  0.73970410  0.11629331  0.85252038     0.12100
H988        H  0.76955146  0.06911107  0.87683064     0.13300
H989        H  0.82083168  0.04182296  0.89659392     0.12400
H990        H  0.88742179  0.15146674  0.84257154     0.09400
H991        H  0.93686819  0.12172776  0.86125188     0.12700
H992        H  0.87969950  0.04086893  0.90322081     0.14600
C993        C  0.59525580  0.40279201  0.88371406    -0.00900
C994        C  0.58950402  0.38601899  0.84675905    -0.09000
C995        C  0.60815523  0.35861040  0.83592056    -0.17800
C996        C  0.63348380  0.34651948  0.86180820     0.04600
C997        C  0.63944193  0.36338565  0.89938119     0.18800
C998        C  0.62057139  0.39143483  0.90982342    -0.19200
C999        C  0.66376901  0.35173175  0.92655792    -0.20500
C1000       C  0.68162934  0.32326366  0.91776537    -0.19000
C1001       C  0.67592096  0.30596716  0.88131615     0.20200
C1002       C  0.65233190  0.31771664  0.85229744     0.02300
C1003       C  0.64799147  0.29950469  0.81558828    -0.13800
C1004       C  0.66442318  0.26959806  0.80951546    -0.11500
C1005       C  0.68617231  0.25745252  0.83924322     0.01800
C1006       C  0.69263334  0.27617442  0.87444555    -0.23600
H1007       H  0.57024027  0.39404742  0.82572424     0.09900
H1008       H  0.60169926  0.34717829  0.80720960     0.13400
H1009       H  0.62523676  0.40403994  0.93852253     0.12100
H1010       H  0.66855708  0.36434877  0.95520394     0.13300
H1011       H  0.69970802  0.31442599  0.93992704     0.12400
H1012       H  0.63132457  0.30715166  0.79146155     0.09400
H1013       H  0.65901159  0.25519174  0.78240562     0.12700
H1014       H  0.70936904  0.26645636  0.89767929     0.14600
N1015       N  0.74607408  0.74107062  0.81627919    -0.03100
C1016       C  0.72869201  0.75937241  0.84360849    -0.00500
C1017       C  0.72802652  0.74393698  0.88096554    -0.23400
C1018       C  0.74555372  0.71539479  0.87690490    -0.23600
C1019       C  0.75671497  0.71425334  0.83751136    -0.00600
H1020       H  0.71614062  0.75270880  0.90832954     0.13200
H1021       H  0.75108165  0.69781101  0.90047921     0.13200
Zn1022     Zn  0.01319553  0.96549121  0.86974913     1.49700
Zn1023     Zn  0.01367091  0.53888373  0.87254318     1.49400
Zn1024     Zn  0.97348191  0.00190412  0.93716604     1.49100
Zn1025     Zn  0.54077097  0.99341604  0.94372145     1.49500
O1026       O  0.01355288  0.00361982  0.90616283    -1.83800
O1027       O  0.00734328  0.97985660  0.81128257    -0.74400
O1028       O  0.97294953  0.56760271  0.87435715    -0.74200
O1029       O  0.95148512  0.95796673  0.93318752    -0.73700
O1030       O  0.01800447  0.52980903  0.81198821    -0.74400
O1031       O  0.97943463  0.93139074  0.88554903    -0.74000
O1032       O  0.93954629  0.54067000  0.91496086    -0.74600
O1033       O  0.52801104  0.98780207  0.00339122    -0.74000
O1034       O  0.57404537  0.56516939  0.89443128    -0.74700
O1035       O  0.98414097  0.00837708  0.99634316    -0.74100
O1036       O  0.59097652  0.52918746  0.94141146    -0.74600
O1037       O  0.56946725  0.95598258  0.92153951    -0.74500
O1038       O  0.53914122  0.93814986  0.86916823    -0.74300
C1039       C  0.01221557  0.00720356  0.79378046     0.77500
C1040       C  0.94491705  0.56414991  0.89050816     0.78000
C1041       C  0.95671331  0.93228858  0.91194061     0.76900
C1042       C  0.00970207  0.00372518  0.01877083     0.77300
C1043       C  0.59428675  0.55619910  0.92259886     0.78500
C1044       C  0.56557501  0.93727478  0.89044819     0.77500
N1045       N  0.80463390  0.71953502  0.99241184    -0.03100
C1046       C  0.79188620  0.69114003  0.97687760    -0.00500
C1047       C  0.80972354  0.68040632  0.94380565    -0.23400
C1048       C  0.83377383  0.70288878  0.93772146    -0.23600
C1049       C  0.83026184  0.72672375  0.96762841    -0.00600
H1050       H  0.80453052  0.65930014  0.92476299     0.13200
H1051       H  0.85091709  0.70264515  0.91277930     0.13200
N1052       N  0.96176498  0.98422162  0.31623912    -0.03100
C1053       C  0.48848974  0.95431399  0.34865779    -0.00500
C1054       C  0.46830862  0.94755525  0.38112090    -0.23400
C1055       C  0.94374501  0.47035907  0.36897874    -0.23600
C1056       C  0.94918130  0.49044866  0.33618084    -0.00600
H1057       H  0.47350433  0.93079186  0.40595125     0.13200
H1058       H  0.92367349  0.47212918  0.39016504     0.13200
Zn1059     Zn  0.75020790  0.72676027  0.36494672     1.49700
Zn1060     Zn  0.72500780  0.77135798  0.43747007     1.49400
Zn1061     Zn  0.80097327  0.75464500  0.43312918     1.49100
Zn1062     Zn  0.76667054  0.80091153  0.36707838     1.49500
O1063       O  0.76102340  0.76303839  0.40094133    -1.83800
O1064       O  0.70965885  0.70240914  0.38416001    -0.74400
O1065       O  0.74151073  0.77828999  0.49516269    -0.74200
O1066       O  0.82471141  0.71361080  0.41191532    -0.73700
O1067       O  0.69557030  0.73179428  0.43861389    -0.74400
O1068       O  0.78720785  0.69418739  0.36801332    -0.74000
O1069       O  0.78901450  0.75032184  0.49331491    -0.74600
O1070       O  0.80270975  0.82914145  0.39143645    -0.74000
O1071       O  0.69723060  0.80959302  0.41802646    -0.74700
O1072       O  0.83104166  0.79401145  0.43067182    -0.74100
O1073       O  0.72369846  0.82673393  0.36330623    -0.74600
O1074       O  0.77839863  0.78669378  0.30987400    -0.74500
O1075       O  0.74886029  0.74110902  0.30510032    -0.74300
C1076       C  0.69183936  0.70678631  0.41555134     0.77500
C1077       C  0.76587089  0.76432053  0.51317983     0.78000
C1078       C  0.81502018  0.69190445  0.38628892     0.76900
C1079       C  0.82709753  0.82244148  0.41514509     0.77300
C1080       C  0.69899571  0.82793067  0.38681097     0.78500
C1081       C  0.76592894  0.76349653  0.28869137     0.77500
N1082       N  0.00174612  0.02283798  0.48817275    -0.03100
C1083       C  0.97907846  0.00755470  0.46401037    -0.00500
C1084       C  0.97886025  0.02053455  0.42527296    -0.23400
C1085       C  0.49999819  0.54368066  0.42233757    -0.23600
C1086       C  0.51589458  0.54318942  0.45982975    -0.00600
H1087       H  0.96358396  0.01307518  0.39972660     0.13200
H1088       H  0.50621295  0.55826341  0.39614199     0.13200
C1089       C  0.66682676  0.68207352  0.42638371    -0.00900
C1090       C  0.64184535  0.69007296  0.45392376    -0.09000
C1091       C  0.61864505  0.66686520  0.46521818    -0.17800
C1092       C  0.61976726  0.63448555  0.44953878     0.04600
C1093       C  0.64577812  0.62617014  0.42262739     0.18800
C1094       C  0.66867111  0.64992140  0.41104583    -0.19200
C1095       C  0.64869480  0.59421818  0.40716656    -0.20500
C1096       C  0.62568480  0.57058424  0.41661557    -0.19000
C1097       C  0.59889722  0.57838240  0.44134086     0.20200
C1098       C  0.59570081  0.61028210  0.45872936     0.02300
C1099       C  0.56766314  0.61690318  0.48278158    -0.13800
C1100       C  0.54280434  0.59366114  0.48670077    -0.11500
C1101       C  0.54558063  0.56286871  0.46799065     0.01800
C1102       C  0.57419375  0.55501921  0.44660687    -0.23600
H1103       H  0.64004732  0.71457162  0.46671401     0.09900
H1104       H  0.60018641  0.67501139  0.48637244     0.13400
H1105       H  0.68826483  0.64319488  0.39040676     0.12100
H1106       H  0.66867310  0.58756473  0.38708679     0.13300
H1107       H  0.62830384  0.54627278  0.40341400     0.12400
H1108       H  0.56332388  0.64041819  0.49700499     0.09400
H1109       H  0.52035987  0.60067338  0.50200665     0.12700
H1110       H  0.57591048  0.53147057  0.43113039     0.14600
C1111       C  0.85056258  0.84865661  0.42622629    -0.00900
C1112       C  0.88343030  0.84130051  0.43656789    -0.09000
C1113       C  0.90511124  0.86613762  0.44859374    -0.17800
C1114       C  0.89429489  0.89922352  0.45141861     0.04600
C1115       C  0.86077620  0.90633721  0.44126914     0.18800
C1116       C  0.83952973  0.88126741  0.42846370    -0.19200
C1117       C  0.84854147  0.93848590  0.44380328    -0.20500
C1118       C  0.86910433  0.96406467  0.45497612    -0.19000
C1119       C  0.90248190  0.95817015  0.46362649     0.20200
C1120       C  0.91552766  0.92563114  0.46289802     0.02300
C1121       C  0.94955757  0.92131524  0.47170099    -0.13800
C1122       C  0.97013344  0.94835603  0.47685208    -0.11500
C1123       C  0.95735679  0.98031224  0.47472446     0.01800
C1124       C  0.92335016  0.98496481  0.46989170    -0.23600
H1125       H  0.89247772  0.81622187  0.43509846     0.09900
H1126       H  0.93008942  0.85865831  0.45562248     0.13400
H1127       H  0.81400173  0.88708992  0.42104756     0.12100
H1128       H  0.82296158  0.94398491  0.43641311     0.13300
H1129       H  0.85905466  0.98881353  0.45549436     0.12400
H1130       H  0.96133478  0.89750440  0.47228414     0.09400
H1131       H  0.99644470  0.94418559  0.47891569     0.13300
H1132       H  0.91354722  0.00974897  0.46720195     0.14600
C1133       C  0.67128778  0.85049551  0.37751788    -0.00900
C1134       C  0.65868080  0.85336683  0.33766754    -0.09000
C1135       C  0.63035428  0.87231841  0.32956648    -0.17800
C1136       C  0.61422423  0.88955594  0.36123903     0.04600
C1137       C  0.62849424  0.88795958  0.40116826     0.18800
C1138       C  0.65622462  0.86800636  0.40902895    -0.19200
C1139       C  0.61485088  0.90601777  0.43322554    -0.20500
C1140       C  0.58688168  0.92525120  0.42676408    -0.19000
C1141       C  0.57118373  0.92590921  0.38846749     0.20200
C1142       C  0.58433358  0.90797946  0.35507200     0.02300
C1143       C  0.56612348  0.90815939  0.31773569    -0.13800
C1144       C  0.53547317  0.92432954  0.31449749    -0.11500
C1145       C  0.52285775  0.94177541  0.34775374     0.01800
C1146       C  0.54142635  0.94322105  0.38409614    -0.23600
H1147       H  0.67014822  0.84000768  0.31289219     0.09900
H1148       H  0.62171054  0.87313544  0.29832077     0.13400
H1149       H  0.66625237  0.86613628  0.43981921     0.12100
H1150       H  0.62584696  0.90519822  0.46356366     0.13300
H1151       H  0.57680145  0.93884120  0.45230514     0.12400
H1152       H  0.57412886  0.89463837  0.29126478     0.09400
H1153       H  0.52108659  0.92208637  0.28653759     0.12700
H1154       H  0.53161063  0.95652387  0.41007674     0.14600
C1155       C  0.92968800  0.52081739  0.32930071    -0.00900
C1156       C  0.94544900  0.55109020  0.32755469    -0.09000
C1157       C  0.92764237  0.58027159  0.33355358    -0.17800
C1158       C  0.89343803  0.57974589  0.34110494     0.04600
C1159       C  0.87716517  0.54914125  0.33773196     0.18800
C1160       C  0.89539380  0.52007429  0.33241147    -0.19200
C1161       C  0.84298295  0.54753203  0.34156066    -0.20500
C1162       C  0.82459305  0.57565286  0.34977059    -0.19000
C1163       C  0.84014992  0.60571219  0.35625631     0.20200
C1164       C  0.87486730  0.60819204  0.35270700     0.02300
C1165       C  0.88952726  0.63859241  0.36280566    -0.13800
C1166       C  0.87030093  0.66551978  0.37514245    -0.11500
C1167       C  0.83599457  0.66314241  0.37676260     0.01800
C1168       C  0.82114696  0.63319059  0.36715962    -0.23600
H1169       H  0.97197170  0.55207355  0.32485888     0.09900
H1170       H  0.94132859  0.60276161  0.33320656     0.13400
H1171       H  0.88312699  0.49659933  0.33300734     0.12100
H1172       H  0.83041471  0.52432506  0.33849219     0.13300
H1173       H  0.79812913  0.57364595  0.35252379     0.12400
H1174       H  0.91581060  0.64199879  0.36236771     0.09400
H1175       H  0.88221439  0.68848585  0.38248680     0.12700
H1176       H  0.79460007  0.63110084  0.36897387     0.14600
C1177       C  0.79966654  0.73241933  0.03328636    -0.00900
C1178       C  0.82683956  0.73811475  0.05933340    -0.09000
C1179       C  0.82261449  0.74675806  0.10036484    -0.17800
C1180       C  0.79081295  0.74908410  0.11724479     0.04600
C1181       C  0.76338477  0.74383166  0.09063399     0.18800
C1182       C  0.76805537  0.73674127  0.04911428    -0.19200
C1183       C  0.73137561  0.74442678  0.10585913    -0.20500
C1184       C  0.72603451  0.74852982  0.14735376    -0.19000
C1185       C  0.75247047  0.75336117  0.17452125     0.20200
C1186       C  0.78516239  0.75509300  0.15970946     0.02300
C1187       C  0.81065144  0.76233239  0.18821152    -0.13800
C1188       C  0.80403992  0.76613064  0.22978954    -0.11500
C1189       C  0.77211122  0.76211022  0.24438193     0.01800
C1190       C  0.74638901  0.75610237  0.21654536    -0.23600
H1191       H  0.85162304  0.73470818  0.04826370     0.09900
H1192       H  0.84471392  0.74997423  0.11853556     0.13400
H1193       H  0.74677287  0.73406772  0.02954475     0.12100
H1194       H  0.71034350  0.74047654  0.08570960     0.13300
H1195       H  0.70102168  0.74772995  0.15831488     0.12400
H1196       H  0.83586030  0.76528804  0.17925002     0.09400
H1197       H  0.82419821  0.77121251  0.25086482     0.12700
H1198       H  0.72152801  0.75372904  0.22767379     0.14600
C1199       C  0.93667481  0.90278036  0.91942612    -0.00900
C1200       C  0.90538586  0.90583776  0.93664034    -0.09000
C1201       C  0.88730712  0.87810778  0.94668277    -0.17800
C1202       C  0.90027053  0.84613460  0.94053135     0.04600
C1203       C  0.93208234  0.84320986  0.92309975     0.18800
C1204       C  0.94962778  0.87130984  0.91223544    -0.19200
C1205       C  0.94647970  0.81224930  0.91714043    -0.20500
C1206       C  0.92994657  0.78402506  0.92783347    -0.19000
C1207       C  0.89839999  0.78598085  0.94432249     0.20200
C1208       C  0.88299815  0.81698358  0.95103561     0.02300
C1209       C  0.85086011  0.81726311  0.96735890    -0.13800
C1210       C  0.83436560  0.78798712  0.97507258    -0.11500
C1211       C  0.84943519  0.75758404  0.96728521     0.01800
C1212       C  0.88180450  0.75691018  0.95294763    -0.23600
H1213       H  0.89483432  0.92989301  0.94256114     0.09900
H1214       H  0.86348388  0.88251730  0.95979924     0.13400
H1215       H  0.97399399  0.86866590  0.89945170     0.12100
H1216       H  0.97077420  0.80982962  0.90414510     0.13300
H1217       H  0.94177126  0.76042476  0.92263963     0.12400
H1218       H  0.83742646  0.83968973  0.97329770     0.09400
H1219       H  0.80917066  0.78920698  0.98535518     0.12700
H1220       H  0.89377729  0.73348637  0.94700241     0.14600
C1221       C  0.62190128  0.57777121  0.93485031    -0.00900
C1222       C  0.61898653  0.61190472  0.93136938    -0.09000
C1223       C  0.64447946  0.63235016  0.94472896    -0.17800
C1224       C  0.67420138  0.61915007  0.96129291     0.04600
C1225       C  0.67694777  0.58446409  0.96468769     0.18800
C1226       C  0.65082609  0.56430687  0.95205398    -0.19200
C1227       C  0.70601459  0.56997167  0.97991007    -0.20500
C1228       C  0.73297793  0.58907913  0.99049623    -0.19000
C1229       C  0.73145059  0.62321114  0.98656860     0.20200
C1230       C  0.70177552  0.63887440  0.97302132     0.02300
C1231       C  0.70167338  0.67344067  0.96980012    -0.13800
C1232       C  0.73059922  0.69116733  0.97580608    -0.11500
C1233       C  0.76027651  0.67541936  0.98665327     0.01800
C1234       C  0.76012865  0.64155102  0.99354096    -0.23600
H1235       H  0.59663013  0.62290966  0.91886548     0.09900
H1236       H  0.64032731  0.65832768  0.94117863     0.13400
H1237       H  0.65327851  0.53790112  0.95491599     0.12100
H1238       H  0.70821950  0.54355393  0.98266267     0.13300
H1239       H  0.75547130  0.57698678  0.00090307     0.12400
H1240       H  0.68014997  0.68730568  0.96037881     0.09400
H1241       H  0.73032372  0.71694526  0.96811991     0.12700
H1242       H  0.78319942  0.62904746  0.00080908     0.14600
C1243       C  0.01114625  0.00848232  0.74859019    -0.00900
C1244       C  0.01865549  0.98051249  0.72531302    -0.09000
C1245       C  0.01803889  0.98158985  0.68264912    -0.17800
C1246       C  0.99956373  0.51475324  0.65892207     0.04600
C1247       C  0.51069762  0.53892851  0.68197897     0.18800
C1248       C  0.51389223  0.53799699  0.72473478    -0.19200
C1249       C  0.49838440  0.56744089  0.66339565    -0.20500
C1250       C  0.49377865  0.56877565  0.62134062    -0.19000
C1251       C  0.50246086  0.54204703  0.59664090     0.20200
C1252       C  0.99493352  0.51828352  0.61583161     0.02300
C1253       C  0.01847177  0.98728616  0.59188905    -0.13800
C1254       C  0.01696855  0.99078257  0.54942751    -0.11500
C1255       C  0.00545649  0.01994253  0.53177352     0.01800
C1256       C  0.49762117  0.54425578  0.55422534    -0.23600
H1257       H  0.02550085  0.95771244  0.74018467     0.09900
H1258       H  0.02418101  0.95912159  0.66692894     0.13400
H1259       H  0.50745776  0.55945101  0.74277394     0.12100
H1260       H  0.49166566  0.58868942  0.68160672     0.13300
H1261       H  0.48362728  0.59102979  0.60798628     0.12400
H1262       H  0.02777546  0.96417966  0.60323426     0.09400
H1263       H  0.02510568  0.97068747  0.53028943     0.12700
H1264       H  0.48615359  0.56595602  0.54108338     0.14600
C1265       C  0.00561795  0.00504442  0.06384278    -0.00900
C1266       C  0.52862048  0.99527284  0.09165875    -0.09000
C1267       C  0.52629665  0.99427347  0.13435775    -0.17800
C1268       C  0.49697552  0.50471869  0.14575323     0.04600
C1269       C  0.97148869  0.49964276  0.12091270     0.18800
C1270       C  0.97425885  0.49996685  0.07840737    -0.19200
C1271       C  0.94011683  0.50185113  0.13766371    -0.20500
C1272       C  0.93614247  0.49978307  0.17941241    -0.19000
C1273       C  0.96350567  0.49640680  0.20552001     0.20200
C1274       C  0.48941003  0.50234081  0.18828583     0.02300
C1275       C  0.51788313  0.99280188  0.22542672    -0.13800
C1276       C  0.51252969  0.98964671  0.26751767    -0.11500
C1277       C  0.97135823  0.99498423  0.27604907     0.01800
C1278       C  0.95830028  0.49257384  0.24719950    -0.23600
H1279       H  0.55275162  0.99578644  0.07809953     0.09900
H1280       H  0.54910989  0.99373685  0.15165972     0.13400
H1281       H  0.95213473  0.50238797  0.05962482     0.12100
H1282       H  0.91837715  0.50434364  0.11824007     0.13300
H1283       H  0.91140699  0.50063560  0.19137108     0.12400
H1284       H  0.54290064  0.99658416  0.21614775     0.09400
H1285       H  0.53324015  0.99111799  0.28861882     0.12700
H1286       H  0.93326599  0.49046233  0.25765331     0.14600
C1287       C  0.74960167  0.74642942  0.77298261    -0.00900
C1288       C  0.75431907  0.77786214  0.75712051    -0.09000
C1289       C  0.75724345  0.78259354  0.71498379    -0.17800
C1290       C  0.75638286  0.75572016  0.68740571     0.04600
C1291       C  0.75261641  0.72387761  0.70395006     0.18800
C1292       C  0.74835377  0.71972183  0.74593163    -0.19200
C1293       C  0.75360444  0.69616049  0.67863781    -0.20500
C1294       C  0.75901391  0.69923989  0.63715164    -0.19000
C1295       C  0.76197689  0.73020927  0.61960797     0.20200
C1296       C  0.75967482  0.75902890  0.64418001     0.02300
C1297       C  0.75994319  0.78971423  0.62418193    -0.13800
C1298       C  0.76243522  0.79148336  0.58164511    -0.11500
C1299       C  0.76604146  0.76293248  0.55809592     0.01800
C1300       C  0.76622624  0.73245185  0.57730168    -0.23600
H1301       H  0.75619125  0.79883692  0.77735459     0.09900
H1302       H  0.76113494  0.80735670  0.70494550     0.13400
H1303       H  0.74416842  0.69538483  0.75770150     0.12100
H1304       H  0.75087365  0.67182048  0.69117074     0.13300
H1305       H  0.76026381  0.67723104  0.61850726     0.12400
H1306       H  0.75708675  0.81259383  0.64046954     0.09400
H1307       H  0.76148276  0.81524939  0.56703351     0.12700
H1308       H  0.76795861  0.71032512  0.55888128     0.14600
C1309       C  0.78222507  0.68999055  0.82578642    -0.00900
C1310       C  0.81361544  0.70042856  0.81526002    -0.09000
C1311       C  0.84096897  0.67948411  0.82030937    -0.17800
C1312       C  0.83750041  0.64769932  0.83690880     0.04600
C1313       C  0.80503241  0.63632738  0.84324331     0.18800
C1314       C  0.77787033  0.65728627  0.83696301    -0.19200
C1315       C  0.79989981  0.60509032  0.85915196    -0.20500
C1316       C  0.82640584  0.58536977  0.87099975    -0.19000
C1317       C  0.85868497  0.59642335  0.86727633     0.20200
C1318       C  0.86484165  0.62745708  0.84946553     0.02300
C1319       C  0.89802473  0.63724518  0.84647512    -0.13800
C1320       C  0.92385412  0.61704580  0.86054330    -0.11500
C1321       C  0.91755379  0.58668053  0.87849429     0.01800
C1322       C  0.88483853  0.57660342  0.88169695    -0.23600
H1323       H  0.81743357  0.72569102  0.80664758     0.09900
H1324       H  0.86462096  0.68951623  0.81327111     0.13400
H1325       H  0.75346834  0.64922537  0.84506684     0.12100
H1326       H  0.77516422  0.59631029  0.86386958     0.13300
H1327       H  0.82158111  0.56161405  0.88415093     0.12400
H1328       H  0.90481000  0.66036815  0.83349904     0.09400
H1329       H  0.94894089  0.62526733  0.85732631     0.12700
H1330       H  0.87967987  0.55288605  0.89479336     0.14600
C1331       C  0.59215473  0.91422563  0.87788172    -0.00900
C1332       C  0.58775047  0.89405356  0.84338023    -0.09000
C1333       C  0.61217546  0.87176205  0.83145391    -0.17800
C1334       C  0.64200057  0.86866700  0.85393564     0.04600
C1335       C  0.64683555  0.88998467  0.88804704     0.18800
C1336       C  0.62212157  0.91247345  0.89952949    -0.19200
C1337       C  0.67595381  0.88813116  0.91130165    -0.20500
C1338       C  0.69970288  0.86441423  0.90281234    -0.19000
C1339       C  0.69490672  0.84201000  0.87083443     0.20200
C1340       C  0.66653094  0.84428131  0.84505021     0.02300
C1341       C  0.66322958  0.82085762  0.81306010    -0.13800
C1342       C  0.68543698  0.79443074  0.80969499    -0.11500
C1343       C  0.71180857  0.79122258  0.83733056     0.01800
C1344       C  0.71733145  0.81596906  0.86632414    -0.23600
H1345       H  0.56509338  0.89521455  0.82551453     0.09900
H1346       H  0.60672895  0.85695007  0.80493812     0.13400
H1347       H  0.62605852  0.92823926  0.92587029     0.12100
H1348       H  0.67996710  0.90450946  0.93702711     0.13300
H1349       H  0.72147143  0.86286037  0.92231875     0.12400
H1350       H  0.64289422  0.82131383  0.79156880     0.09400
H1351       H  0.68069854  0.77535172  0.78729460     0.12700
H1352       H  0.73783110  0.81338701  0.88776869     0.14600
loop_ 
_geom_bond_atom_site_label_1 
_geom_bond_atom_site_label_2 
_geom_bond_distance 
_geom_bond_site_symmetry_2 
_ccdc_geom_bond_type 
N1            C5   1.366       .  A
N1            C2   1.365       .  A
N1          C273   1.459       .  S
C2            C3   1.378       .  A
C2          C329   1.472       .  S
C3            C4   1.364       .  A
C3            H6   1.081       .  S
C4            C5   1.385       .  A
C4            H7   1.082       .  S
C5          C295   1.487       .  S
Zn8          O12   1.933       .  S
Zn8          O13   2.018       .  S
Zn8          O17   2.019       .  S
Zn8         O700   1.971       .  S
Zn9         O350   1.960       .  S
Zn9          O14   2.034       .  S
Zn9          O16   2.038       .  S
Zn9         O696   2.063       .  S
Zn10         O12   1.948       .  S
Zn10         O15   2.020       .  S
Zn10         O21   2.017       .  S
Zn10        O356   2.043       .  S
Zn11        O688   1.971       .  S
Zn11         O19   2.047       .  S
Zn11         O23   2.072       .  S
Zn11        O360   2.029       .  S
O12        Zn347   1.949       .  S
O12        Zn687   1.969       .  S
O13          C25   1.275       .  A
O14          C26   1.275       .  A
O15          C27   1.273       .  A
O16         C363   1.279       .  A
O17          C27   1.275       .  A
O18        Zn348   2.011       .  S
O18          C26   1.274       .  A
O19         C704   1.279   1_556  A
O20        Zn685   2.068       .  S
O20          C29   1.280       .  A
O21          C28   1.278   1_556  A
O22        Zn349   2.021       .  S
O22          C29   1.275       .  A
O23          C30   1.280       .  A
O24        Zn684   1.980   1_455  S
O24          C30   1.271       .  A
C25         C229   1.479       .  S
C25         O354   1.278       .  A
C26         C307   1.482       .  S
C27         C185   1.484       .  S
C28         C251   1.490       .  S
C28         O695   1.280       .  A
C29         C207   1.491       .  S
C30         C317   1.489       .  S
N31          C35   1.367       .  A
N31          C32   1.368       .  A
N31         C163   1.455   1_556  S
C32          C33   1.378       .  A
C32         C219   1.478       .  S
C33          C34   1.363       .  A
C33          H36   1.080       .  S
C34          C35   1.382       .  A
C34          H37   1.083       .  S
C35         C197   1.482       .  S
N38         C380   1.363       .  A
N38         C715   1.366       .  A
N38         C263   1.454       .  S
C39         N714   1.363       .  A
C39          C40   1.385       .  A
C39         C131   1.480   1_655  S
C40        C1055   1.366       .  A
C40          H43   1.083       .  S
C41          C42   1.378       .  A
C41        C1054   1.366       .  A
C41          H44   1.080       .  S
C42         N376   1.361       .  A
C42         C141   1.480   1_565  S
Zn45         O49   1.939       .  S
Zn45         O50   2.037       .  S
Zn45         O54   2.003       .  S
Zn45         O61   2.050       .  S
Zn46         O49   1.938       .  S
Zn46         O51   2.032       .  S
Zn46         O53   2.010       .  S
Zn46         O57   2.021       .  S
Zn47         O49   1.949       .  S
Zn47         O52   2.053       .  S
Zn47         O55   2.055       .  S
Zn47         O58   2.042       .  S
Zn48         O49   1.931       .  S
Zn48         O56   2.031       .  S
Zn48         O59   2.022       .  S
Zn48         O60   2.035       .  S
O50          C62   1.277       .  A
O51          C63   1.277       .  A
O52          C64   1.279       .  A
O53          C62   1.273       .  A
O54          C64   1.274       .  A
O55          C63   1.279       .  A
O56          C65   1.278       .  A
O57          C66   1.275       .  A
O58          C65   1.278       .  A
O59          C66   1.274       .  A
O60          C67   1.277       .  A
O61          C67   1.279       .  A
C62          C75   1.481       .  S
C63         C285   1.486       .  S
C64         C153   1.477       .  S
C65          C97   1.487       .  S
C66         C119   1.474       .  S
C67         C175   1.483       .  S
N68          C69   1.360       .  A
N68        C1086   1.360       .  A
N68         C241   1.439       .  S
C69          C70   1.381       .  A
C69         C109   1.481       .  S
C70        C1085   1.369       .  A
C70          H73   1.075       .  S
C71          C72   1.379       .  A
C71        C1084   1.365   1_455  A
C71          H74   1.083       .  S
C72        N1082   1.359       .  A
C72          C87   1.471       .  S
C75          C76   1.401       .  A
C75          C80   1.401       .  A
C76          C77   1.397       .  A
C76          H89   1.083       .  S
C77          C78   1.414       .  A
C77          H90   1.077       .  S
C78          C84   1.432       .  A
C78          C79   1.424       .  A
C79          C81   1.399       .  A
C79          C80   1.407       .  A
C80          H91   1.085       .  S
C81          C82   1.390       .  A
C81          H92   1.084       .  S
C82          C83   1.399       .  A
C82          H93   1.084       .  S
C83          C84   1.422       .  A
C83          C88   1.404       .  A
C84          C85   1.417       .  A
C85          C86   1.399       .  A
C85          H94   1.077       .  S
C86          C87   1.397       .  A
C86          H95   1.083       .  S
C87          C88   1.399       .  A
C88          H96   1.085       .  S
C97          C98   1.402       .  A
C97         C102   1.403       .  A
C98          C99   1.402       .  A
C98         H111   1.083       .  S
C99         C100   1.416       .  A
C99         H112   1.078       .  S
C100        C106   1.434       .  A
C100        C101   1.422       .  A
C101        C103   1.399       .  A
C101        C102   1.406       .  A
C102        H113   1.085       .  S
C103        C104   1.389       .  A
C103        H114   1.084       .  S
C104        C105   1.399       .  A
C104        H115   1.084       .  S
C105        C106   1.422       .  A
C105        C110   1.405       .  A
C106        C107   1.417       .  A
C107        C108   1.402       .  A
C107        H116   1.078       .  S
C108        C109   1.399       .  A
C108        H117   1.081       .  S
C109        C110   1.401       .  A
C110        H118   1.085       .  S
C119        C120   1.401       .  A
C119        C124   1.396       .  A
C120        C121   1.401       .  A
C120        H133   1.084       .  S
C121        C122   1.415       .  A
C121        H134   1.078       .  S
C122        C128   1.431       .  A
C122        C123   1.424       .  A
C123        C125   1.397       .  A
C123        C124   1.402       .  A
C124        H135   1.085       .  S
C125        C126   1.386       .  A
C125        H136   1.084       .  S
C126        C127   1.399       .  A
C126        H137   1.084       .  S
C127        C128   1.421       .  A
C127        C132   1.397       .  A
C128        C129   1.419       .  A
C129        C130   1.404       .  A
C129        H138   1.078       .  S
C130        C131   1.399       .  A
C130        H139   1.083       .  S
C131        C132   1.400       .  A
C132        H140   1.086       .  S
C141        C142   1.400       .  A
C141        C146   1.399       .  A
C142        C143   1.400       .  A
C142        H155   1.083       .  S
C143        C144   1.416       .  A
C143        H156   1.078       .  S
C144        C150   1.432       .  A
C144        C145   1.423       .  A
C145        C147   1.398       .  A
C145        C146   1.402       .  A
C146        H157   1.085   1_545  S
C147        C148   1.388       .  A
C147        H158   1.084       .  S
C148        C149   1.399       .  A
C148        H159   1.084       .  S
C149        C150   1.422       .  A
C149        C154   1.402       .  A
C150        C151   1.418       .  A
C151        C152   1.402       .  A
C151        H160   1.078       .  S
C152        C153   1.399       .  A
C152        H161   1.083       .  S
C153        C154   1.400       .  A
C154        H162   1.085       .  S
C163        C164   1.406       .  A
C163        C168   1.404       .  A
C164        C165   1.401       .  A
C164        H177   1.081       .  S
C165        C166   1.414       .  A
C165        H178   1.078       .  S
C166        C172   1.435       .  A
C166        C167   1.422       .  A
C167        C169   1.400       .  A
C167        C168   1.409       .  A
C168        H179   1.081       .  S
C169        C170   1.391       .  A
C169        H180   1.084       .  S
C170        C171   1.400       .  A
C170        H181   1.084       .  S
C171        C172   1.422       .  A
C171        C176   1.408       .  A
C172        C173   1.417       .  A
C173        C174   1.403       .  A
C173        H182   1.078       .  S
C174        C175   1.401       .  A
C174        H183   1.083       .  S
C175        C176   1.401       .  A
C176        H184   1.085       .  S
C185        C186   1.403       .  A
C185        C190   1.401       .  A
C186        C187   1.400       .  A
C186        H199   1.083       .  S
C187        C188   1.415       .  A
C187        H200   1.078       .  S
C188        C194   1.433       .  A
C188        C189   1.424       .  A
C189        C191   1.398       .  A
C189        C190   1.404       .  A
C190        H201   1.085       .  S
C191        C192   1.387       .  A
C191        H202   1.084       .  S
C192        C193   1.399       .  A
C192        H203   1.084       .  S
C193        C194   1.422       .  A
C193        C198   1.401       .  A
C194        C195   1.419       .  A
C195        C196   1.403       .  A
C195        H204   1.078       .  S
C196        C197   1.398       .  A
C196        H205   1.083       .  S
C197        C198   1.400       .  A
C198        H206   1.085       .  S
C207        C208   1.402       .  A
C207        C212   1.404       .  A
C208        C209   1.405       .  A
C208        H221   1.083       .  S
C209        C210   1.418       .  A
C209        H222   1.078       .  S
C210        C216   1.437       .  A
C210        C211   1.422       .  A
C211        C213   1.400       .  A
C211        C212   1.407       .  A
C212        H223   1.085       .  S
C213        C214   1.389       .  A
C213        H224   1.084       .  S
C214        C215   1.398       .  A
C214        H225   1.084       .  S
C215        C216   1.424       .  A
C215        C220   1.407       .  A
C216        C217   1.416       .  A
C217        C218   1.402       .  A
C217        H226   1.078       .  S
C218        C219   1.401       .  A
C218        H227   1.084       .  S
C219        C220   1.398       .  A
C220        H228   1.085       .  S
C229        C230   1.401       .  A
C229       C1248   1.399       .  A
C230        C231   1.401       .  A
C230        H243   1.084       .  S
C231        C570   1.416       .  A
C231        H244   1.078       .  S
C232        C238   1.432       .  A
C232        C569   1.415   1_545  A
C232        C909   1.424       .  A
C233        C235   1.399   1_455  A
C233        C234   1.407       .  A
C233        C908   1.423       .  A
C234       C1243   1.401       .  A
C234        H245   1.084   1_455  S
C235        C236   1.390       .  A
C235        H246   1.084       .  S
C236        C237   1.399       .  A
C236        H247   1.084       .  S
C237        C242   1.406       .  A
C237        C914   1.423   1_655  A
C238        C913   1.421       .  A
C238        C577   1.418   1_545  A
C239        C240   1.402       .  A
C239        C576   1.418       .  A
C239        H248   1.077       .  S
C240        C241   1.398       .  A
C240        H249   1.081       .  S
C241       C1256   1.398       .  A
C242       C1255   1.399   1_655  A
C242        H250   1.083       .  S
C251        C928   1.404       .  A
C251        C594   1.402       .  A
C252        C253   1.405       .  A
C252        C927   1.404       .  A
C252        H265   1.083       .  S
C253        C592   1.416   1_455  A
C253        H266   1.078       .  S
C254        C260   1.436       .  A
C254        C591   1.418   1_655  A
C254        C931   1.422       .  A
C255        C257   1.397       .  A
C255        C256   1.401       .  A
C255        C930   1.423       .  A
C256        C589   1.400       .  A
C256        H267   1.085       .  S
C257        C258   1.384       .  A
C257        H268   1.084       .  S
C258        C259   1.398       .  A
C258        H269   1.084       .  S
C259        C264   1.397       .  A
C259        C936   1.421       .  A
C260        C935   1.421       .  A
C260        C599   1.418   1_655  A
C261        C262   1.407       .  A
C261        C598   1.418   1_455  A
C261        H270   1.078       .  S
C262        C939   1.403   1_455  A
C262        H271   1.081       .  S
C263        C938   1.404       .  A
C263        C602   1.405       .  A
C264        C601   1.401       .  A
C264        H272   1.084       .  S
C273        C274   1.406       .  A
C273        C278   1.408       .  A
C274        C275   1.403       .  A
C274        H287   1.079       .  S
C275        C276   1.415       .  A
C275        H288   1.078       .  S
C276        C282   1.436       .  A
C276        C277   1.420       .  A
C277        C279   1.400       .  A
C277        C278   1.407       .  A
C278        H289   1.082       .  S
C279        C280   1.391       .  A
C279        H290   1.084       .  S
C280        C281   1.400       .  A
C280        H291   1.084       .  S
C281        C282   1.424       .  A
C281        C286   1.409       .  A
C282        C283   1.416       .  A
C283        C284   1.402       .  A
C283        H292   1.078       .  S
C284        C285   1.402       .  A
C284        H293   1.083       .  S
C285        C286   1.402       .  A
C286        H294   1.084       .  S
C295        C296   1.401       .  A
C295        C300   1.401       .  A
C296        C297   1.402       .  A
C296        H309   1.083       .  S
C297        C298   1.417       .  A
C297        H310   1.078       .  S
C298        C304   1.433       .  A
C298        C299   1.422       .  A
C299        C301   1.398       .  A
C299        C300   1.400       .  A
C300        H311   1.085       .  S
C301        C302   1.386       .  A
C301        H312   1.084       .  S
C302        C303   1.398       .  A
C302        H313   1.084       .  S
C303        C304   1.423       .  A
C303        C308   1.402       .  A
C304        C305   1.417       .  A
C305        C306   1.402       .  A
C305        H314   1.078       .  S
C306        C307   1.402       .  A
C306        H315   1.083       .  S
C307        C308   1.401       .  A
C308        H316   1.085       .  S
C317        C318   1.405       .  A
C317        C322   1.404       .  A
C318        C319   1.390       .  A
C318        H331   1.083       .  S
C319        C320   1.409       .  A
C319        H332   1.078       .  S
C320        C326   1.430       .  A
C320        C321   1.426       .  A
C321        C323   1.400       .  A
C321        C322   1.413       .  A
C322        H333   1.084       .  S
C323        C324   1.393       .  A
C323        H334   1.084       .  S
C324        C325   1.401       .  A
C324        H335   1.084       .  S
C325        C326   1.419       .  A
C325        C330   1.402       .  A
C326        C327   1.420       .  A
C327        C328   1.398       .  A
C327        H336   1.078       .  S
C328        C329   1.394       .  A
C328        H337   1.083       .  S
C329        C330   1.401       .  A
C330        H338   1.082       .  S
N339        C343   1.359       .  A
N339        C340   1.363       .  A
N339        C611   1.442       .  S
C340        C341   1.382       .  A
C340        C667   1.485       .  S
C341        C342   1.365       .  A
C341        H344   1.081       .  S
C342        C343   1.373       .  A
C342        H345   1.075       .  S
C343        C633   1.473       .  S
Zn346       O350   1.948   1_565  S
Zn346       O351   2.020       .  S
Zn346       O355   2.045       .  S
Zn346      O1038   1.990       .  S
Zn347       O352   2.008       .  S
Zn347       O354   2.042       .  S
Zn347      O1034   2.042       .  S
Zn348       O350   1.933       .  S
Zn348       O353   2.009   1_545  S
Zn348       O359   2.009   1_556  S
Zn349      O1026   1.963       .  S
Zn349       O357   2.062   1_546  S
Zn349       O361   2.048   1_545  S
O350      Zn1025   1.955   1_545  S
O351        C363   1.277   1_565  A
O352        C364   1.273       .  A
O353        C365   1.271       .  A
O355        C365   1.277       .  A
O356        C364   1.277       .  A
O357       C1042   1.280   1_565  A
O358      Zn1023   2.037       .  S
O358        C367   1.277       .  A
O359        C366   1.277   1_545  A
O360        C367   1.276       .  A
O361        C368   1.279       .  A
O362      Zn1022   1.991       .  S
O362        C368   1.271       .  A
C363        C567   1.480       .  S
C364        C645   1.485       .  S
C365        C523   1.483       .  S
C366        C589   1.485       .  S
C366       O1033   1.279       .  A
C367        C545   1.487       .  S
C368        C655   1.480       .  S
N369        C373   1.363       .  A
N369        C370   1.363       .  A
N369        C501   1.447   1_556  S
C370        C371   1.379       .  A
C370        C557   1.475       .  S
C371        C372   1.366       .  A
C371        H374   1.082       .  S
C372        C373   1.381       .  A
C372        H375   1.079       .  S
C373        C535   1.485       .  S
N376       C1053   1.363       .  A
N376        C601   1.448       .  S
C377       N1052   1.365       .  A
C377        C378   1.383       .  A
C377        C469   1.484   1_655  S
C378        C717   1.367       .  A
C378        H381   1.082       .  S
C379        C716   1.367       .  A
C379        C380   1.379       .  A
C379        H382   1.080       .  S
C380        C479   1.482       .  S
Zn383       O387   1.935       .  S
Zn383       O388   2.039       .  S
Zn383       O392   2.007       .  S
Zn383       O399   2.038       .  S
Zn384       O387   1.934       .  S
Zn384       O389   2.012       .  S
Zn384       O391   2.018       .  S
Zn384       O395   2.041       .  S
Zn385       O387   1.953       .  S
Zn385       O390   2.056       .  S
Zn385       O393   2.030       .  S
Zn385       O396   2.043       .  S
Zn386       O387   1.922       .  S
Zn386       O394   2.035       .  S
Zn386       O397   2.024       .  S
Zn386       O398   2.023       .  S
O388        C400   1.277       .  A
O389        C401   1.276       .  A
O390        C402   1.279       .  A
O391        C400   1.275       .  A
O392        C402   1.274       .  A
O393        C401   1.277       .  A
O394        C403   1.277       .  A
O395        C404   1.276       .  A
O396        C403   1.277       .  A
O397        C404   1.275       .  A
O398        C405   1.277       .  A
O399        C405   1.278       .  A
C400        C413   1.485       .  S
C401        C623   1.467       .  S
C402        C491   1.487       .  S
C403        C435   1.487       .  S
C404        C457   1.484       .  S
C405        C513   1.473       .  S
N406        C748   1.360       .  A
N406        C407   1.360       .  A
N406        C579   1.438       .  S
C407        C408   1.380       .  A
C407        C447   1.484   1_545  S
C408        C747   1.368       .  A
C408        H411   1.079       .  S
C409        C746   1.371       .  A
C409        C410   1.377       .  A
C409        H412   1.082       .  S
C410        N744   1.359       .  A
C410        C425   1.476   1_655  S
C413        C414   1.402       .  A
C413        C418   1.403       .  A
C414        C415   1.397       .  A
C414        H427   1.083       .  S
C415        C416   1.414       .  A
C415        H428   1.077       .  S
C416        C422   1.432       .  A
C416        C417   1.423       .  A
C417        C419   1.400       .  A
C417        C418   1.409       .  A
C418        H429   1.084       .  S
C419        C420   1.391       .  A
C419        H430   1.084       .  S
C420        C421   1.400       .  A
C420        H431   1.084       .  S
C421        C422   1.423       .  A
C421        C426   1.407       .  A
C422        C423   1.417       .  A
C423        C424   1.398       .  A
C423        H432   1.077       .  S
C424        C425   1.397       .  A
C424        H433   1.083   1_455  S
C425        C426   1.399       .  A
C426        H434   1.085       .  S
C435        C436   1.402       .  A
C435        C440   1.402       .  A
C436        C437   1.403       .  A
C436        H449   1.083       .  S
C437        C438   1.417       .  A
C437        H450   1.078       .  S
C438        C444   1.436       .  A
C438        C439   1.423       .  A
C439        C441   1.399       .  A
C439        C440   1.407       .  A
C440        H451   1.085       .  S
C441        C442   1.389       .  A
C441        H452   1.084       .  S
C442        C443   1.399       .  A
C442        H453   1.084       .  S
C443        C444   1.423       .  A
C443        C448   1.405       .  A
C444        C445   1.417       .  A
C445        C446   1.402       .  A
C445        H454   1.077       .  S
C446        C447   1.400       .  A
C446        H455   1.080       .  S
C447        C448   1.401       .  A
C448        H456   1.085   1_565  S
C457        C458   1.402       .  A
C457        C462   1.402       .  A
C458        C459   1.399       .  A
C458        H471   1.083       .  S
C459        C460   1.413       .  A
C459        H472   1.078       .  S
C460        C466   1.433       .  A
C460        C461   1.424       .  A
C461        C463   1.399       .  A
C461        C462   1.409       .  A
C462        H473   1.085       .  S
C463        C464   1.390       .  A
C463        H474   1.084       .  S
C464        C465   1.400       .  A
C464        H475   1.084       .  S
C465        C466   1.420       .  A
C465        C470   1.402       .  A
C466        C467   1.419       .  A
C467        C468   1.404       .  A
C467        H476   1.078       .  S
C468        C469   1.399       .  A
C468        H477   1.083       .  S
C469        C470   1.402       .  A
C470        H478   1.084       .  S
C479        C480   1.400       .  A
C479        C484   1.399       .  A
C480        C481   1.401       .  A
C480        H493   1.083       .  S
C481        C482   1.416       .  A
C481        H494   1.078       .  S
C482        C488   1.434       .  A
C482        C483   1.423       .  A
C483        C485   1.398       .  A
C483        C484   1.405       .  A
C484        H495   1.085       .  S
C485        C486   1.389       .  A
C485        H496   1.084       .  S
C486        C487   1.400       .  A
C486        H497   1.084       .  S
C487        C488   1.421       .  A
C487        C492   1.403       .  A
C488        C489   1.418       .  A
C489        C490   1.404       .  A
C489        H498   1.078       .  S
C490        C491   1.402       .  A
C490        H499   1.083       .  S
C491        C492   1.403       .  A
C492        H500   1.085       .  S
C501        C502   1.402       .  A
C501        C506   1.403       .  A
C502        C503   1.394       .  A
C502        H515   1.082       .  S
C503        C504   1.412       .  A
C503        H516   1.077       .  S
C504        C510   1.430       .  A
C504        C505   1.422       .  A
C505        C507   1.401       .  A
C505        C506   1.410       .  A
C506        H517   1.081       .  S
C507        C508   1.393       .  A
C507        H518   1.084       .  S
C508        C509   1.401       .  A
C508        H519   1.084       .  S
C509        C510   1.422       .  A
C509        C514   1.409       .  A
C510        C511   1.415       .  A
C511        C512   1.396       .  A
C511        H520   1.078       .  S
C512        C513   1.398       .  A
C512        H521   1.084       .  S
C513        C514   1.401       .  A
C514        H522   1.084       .  S
C523        C524   1.402       .  A
C523        C528   1.400       .  A
C524        C525   1.400       .  A
C524        H537   1.083       .  S
C525        C526   1.415       .  A
C525        H538   1.077       .  S
C526        C532   1.434       .  A
C526        C527   1.424       .  A
C527        C529   1.398       .  A
C527        C528   1.407       .  A
C528        H539   1.085       .  S
C529        C530   1.388       .  A
C529        H540   1.084       .  S
C530        C531   1.399       .  A
C530        H541   1.084       .  S
C531        C532   1.422       .  A
C531        C536   1.404       .  A
C532        C533   1.418       .  A
C533        C534   1.403       .  A
C533        H542   1.077       .  S
C534        C535   1.399       .  A
C534        H543   1.083       .  S
C535        C536   1.401       .  A
C536        H544   1.085       .  S
C545        C546   1.402       .  A
C545        C550   1.403       .  A
C546        C547   1.401       .  A
C546        H559   1.083       .  S
C547        C548   1.416       .  A
C547        H560   1.077       .  S
C548        C554   1.434       .  A
C548        C549   1.423       .  A
C549        C551   1.399       .  A
C549        C550   1.406       .  A
C550        H561   1.084       .  S
C551        C552   1.389       .  A
C551        H562   1.084       .  S
C552        C553   1.399       .  A
C552        H563   1.084       .  S
C553        C554   1.423       .  A
C553        C558   1.406       .  A
C554        C555   1.416       .  A
C555        C556   1.400       .  A
C555        H564   1.077       .  S
C556        C557   1.399       .  A
C556        H565   1.084       .  S
C557        C558   1.398       .  A
C558        H566   1.085       .  S
C567        C568   1.402   1_545  A
C567        C910   1.400       .  A
C568        C569   1.400       .  A
C568        H581   1.083       .  S
C569        H582   1.078       .  S
C570        C576   1.433       .  A
C570       C1247   1.424       .  A
C571       C1246   1.423       .  A
C571        C573   1.400       .  A
C571        C572   1.406   1_655  A
C572        C905   1.402       .  A
C572        H583   1.085   1_455  S
C573        C574   1.390       .  A
C573        H584   1.084       .  S
C574        C575   1.400       .  A
C574        H585   1.084       .  S
C575       C1252   1.421       .  A
C575        C580   1.403       .  A
C576       C1251   1.422       .  A
C577        C578   1.402       .  A
C577        H586   1.078       .  S
C578        C579   1.398   1_565  A
C578        H587   1.081       .  S
C579        C918   1.398       .  A
C580        C917   1.401       .  A
C580        H588   1.083       .  S
C589       C1266   1.403       .  A
C590       C1265   1.404       .  A
C590        C591   1.407       .  A
C590        H603   1.083       .  S
C591        H604   1.078       .  S
C592        C598   1.434       .  A
C592       C1269   1.423       .  A
C593       C1268   1.422       .  A
C593        C595   1.398       .  A
C593        C594   1.403       .  A
C594        H605   1.085       .  S
C595        C596   1.387       .  A
C595        H606   1.084       .  S
C596        C597   1.399       .  A
C596        H607   1.084       .  S
C597       C1274   1.421       .  A
C597        C602   1.403       .  A
C598       C1273   1.420       .  A
C599        C600   1.408   1_545  A
C599        H608   1.078       .  S
C600       C1277   1.404   1_455  A
C600        H609   1.081       .  S
C601       C1276   1.402       .  A
C602        H610   1.083       .  S
C611        C612   1.400       .  A
C611        C616   1.401       .  A
C612        C613   1.392       .  A
C612        H625   1.082       .  S
C613        C614   1.413       .  A
C613        H626   1.077       .  S
C614        C620   1.427       .  A
C614        C615   1.422       .  A
C615        C617   1.400       .  A
C615        C616   1.406       .  A
C616        H627   1.081       .  S
C617        C618   1.392       .  A
C617        H628   1.084       .  S
C618        C619   1.400       .  A
C618        H629   1.084       .  S
C619        C620   1.423       .  A
C619        C624   1.407       .  A
C620        C621   1.414       .  A
C621        C622   1.392       .  A
C621        H630   1.077       .  S
C622        C623   1.396       .  A
C622        H631   1.084       .  S
C623        C624   1.400       .  A
C624        H632   1.084       .  S
C633        C634   1.397       .  A
C633        C638   1.400       .  A
C634        C635   1.397       .  A
C634        H647   1.084       .  S
C635        C636   1.416       .  A
C635        H648   1.077       .  S
C636        C642   1.431       .  A
C636        C637   1.422       .  A
C637        C639   1.400       .  A
C637        C638   1.406       .  A
C638        H649   1.085       .  S
C639        C640   1.391       .  A
C639        H650   1.084       .  S
C640        C641   1.400       .  A
C640        H651   1.084       .  S
C641        C642   1.423       .  A
C641        C646   1.409       .  A
C642        C643   1.414       .  A
C643        C644   1.396       .  A
C643        H652   1.077       .  S
C644        C645   1.402       .  A
C644        H653   1.083       .  S
C645        C646   1.403       .  A
C646        H654   1.084       .  S
C655        C656   1.404       .  A
C655        C660   1.398       .  A
C656        C657   1.398       .  A
C656        H669   1.083       .  S
C657        C658   1.414       .  A
C657        H670   1.078       .  S
C658        C664   1.432       .  A
C658        C659   1.425       .  A
C659        C661   1.397       .  A
C659        C660   1.404       .  A
C660        H671   1.085       .  S
C661        C662   1.386       .  A
C661        H672   1.084       .  S
C662        C663   1.399       .  A
C662        H673   1.084       .  S
C663        C664   1.421       .  A
C663        C668   1.399       .  A
C664        C665   1.419       .  A
C665        C666   1.403       .  A
C665        H674   1.078       .  S
C666        C667   1.400       .  A
C666        H675   1.083       .  S
C667        C668   1.400       .  A
C668        H676   1.085       .  S
N677        C681   1.363       .  A
N677        C678   1.362       .  A
N677        C949   1.454       .  S
C678        C679   1.377       .  A
C678       C1005   1.472       .  S
C679        C680   1.365       .  A
C679        H682   1.080       .  S
C680        C681   1.386       .  A
C680        H683   1.082       .  S
C681        C971   1.486       .  S
Zn684       O688   1.937   1_655  S
Zn684       O689   2.022       .  S
Zn684       O693   2.045       .  S
Zn685      O1026   1.967       .  S
Zn685       O690   2.032   1_455  S
Zn685       O692   2.040       .  S
Zn686       O688   1.939   1_655  S
Zn686       O691   2.013       .  S
Zn686      O1032   2.026       .  S
Zn686       O697   2.012       .  S
Zn687       O695   2.056   1_556  S
Zn687      O1036   2.018       .  S
Zn687       O699   2.073       .  S
O688      Zn1023   1.957       .  S
O689        C701   1.276   1_655  A
O690        C702   1.275       .  A
O691        C703   1.272       .  A
O692       C1039   1.279       .  A
O693        C703   1.277       .  A
O694      Zn1024   2.006       .  S
O694        C702   1.273       .  A
O696        C705   1.280       .  A
O697        C704   1.278   1_656  A
O698      Zn1025   2.010   1_545  S
O698        C705   1.274       .  A
O699        C706   1.280       .  A
O700        C706   1.269       .  A
C701        C905   1.479       .  S
C701       O1030   1.277       .  A
C702        C983   1.482       .  S
C703        C861   1.488       .  S
C704        C927   1.486       .  S
C705        C883   1.491       .  S
C706        C993   1.488       .  S
N707        C711   1.370       .  A
N707        C708   1.366       .  A
N707        C839   1.450   1_556  S
C708        C709   1.375       .  A
C708        C895   1.478       .  S
C709        C710   1.360       .  A
C709        H712   1.077       .  S
C710        C711   1.386       .  A
C710        H713   1.082       .  S
C711        C873   1.493       .  S
N714       C1056   1.361       .  A
N714        C939   1.450       .  S
C715        C716   1.383       .  A
C715        C807   1.483       .  S
C716        H719   1.082       .  S
C717        C718   1.379       .  A
C717        H720   1.080       .  S
C718       N1052   1.365       .  A
C718        C817   1.487   1_565  S
Zn721       O725   1.944       .  S
Zn721       O726   2.036       .  S
Zn721       O730   2.022       .  S
Zn721       O737   2.058       .  S
Zn722       O725   1.952       .  S
Zn722       O727   2.047       .  S
Zn722       O729   2.027       .  S
Zn722       O733   2.062       .  S
Zn723       O725   1.953       .  S
Zn723       O728   2.064       .  S
Zn723       O731   2.050       .  S
Zn723       O734   2.056       .  S
Zn724       O725   1.922       .  S
Zn724       O732   2.020       .  S
Zn724       O735   2.010       .  S
Zn724       O736   2.029       .  S
O726        C738   1.278       .  A
O727        C739   1.279       .  A
O728        C740   1.280       .  A
O729        C738   1.276       .  A
O730        C740   1.276       .  A
O731        C739   1.279       .  A
O732        C741   1.276       .  A
O733        C742   1.279       .  A
O734        C741   1.279       .  A
O735        C742   1.273       .  A
O736        C743   1.276       .  A
O737        C743   1.279       .  A
C738        C751   1.489       .  S
C739        C961   1.484       .  S
C740        C829   1.489       .  S
C741        C773   1.487       .  S
C742        C795   1.484       .  S
C743        C851   1.482       .  S
N744        C745   1.362       .  A
N744        C917   1.440       .  S
C745        C746   1.381       .  A
C745        C785   1.486       .  S
C746        H749   1.079       .  S
C747        C748   1.379       .  A
C747        H750   1.082       .  S
C748        C763   1.476       .  S
C751        C752   1.404       .  A
C751        C756   1.403       .  A
C752        C753   1.399       .  A
C752        H765   1.083       .  S
C753        C754   1.415       .  A
C753        H766   1.077       .  S
C754        C760   1.434       .  A
C754        C755   1.423       .  A
C755        C757   1.399       .  A
C755        C756   1.407       .  A
C756        H767   1.084       .  S
C757        C758   1.389       .  A
C757        H768   1.084       .  S
C758        C759   1.399       .  A
C758        H769   1.084       .  S
C759        C760   1.422       .  A
C759        C764   1.404       .  A
C760        C761   1.418       .  A
C761        C762   1.401       .  A
C761        H770   1.077       .  S
C762        C763   1.398       .  A
C762        H771   1.081       .  S
C763        C764   1.399       .  A
C764        H772   1.085       .  S
C773        C774   1.401       .  A
C773        C778   1.403       .  A
C774        C775   1.403       .  A
C774        H787   1.083       .  S
C775        C776   1.417       .  A
C775        H788   1.078       .  S
C776        C782   1.435       .  A
C776        C777   1.422       .  A
C777        C779   1.400       .  A
C777        C778   1.407       .  A
C778        H789   1.085       .  S
C779        C780   1.390       .  A
C779        H790   1.084       .  S
C780        C781   1.399       .  A
C780        H791   1.084       .  S
C781        C782   1.423       .  A
C781        C786   1.407       .  A
C782        C783   1.416       .  A
C783        C784   1.401       .  A
C783        H792   1.078       .  S
C784        C785   1.400       .  A
C784        H793   1.079       .  S
C785        C786   1.403       .  A
C786        H794   1.085       .  S
C795        C796   1.403       .  A
C795        C800   1.402       .  A
C796        C797   1.398       .  A
C796        H809   1.083       .  S
C797        C798   1.412       .  A
C797        H810   1.078       .  S
C798        C804   1.432       .  A
C798        C799   1.425       .  A
C799        C801   1.400       .  A
C799        C800   1.410       .  A
C800        H811   1.084       .  S
C801        C802   1.391       .  A
C801        H812   1.084       .  S
C802        C803   1.401       .  A
C802        H813   1.084       .  S
C803        C804   1.420       .  A
C803        C808   1.402       .  A
C804        C805   1.419       .  A
C805        C806   1.403       .  A
C805        H814   1.078       .  S
C806        C807   1.398       .  A
C806        H815   1.083       .  S
C807        C808   1.403       .  A
C808        H816   1.085       .  S
C817        C818   1.400       .  A
C817        C822   1.401       .  A
C818        C819   1.403       .  A
C818        H831   1.083       .  S
C819        C820   1.417       .  A
C819        H832   1.078       .  S
C820        C826   1.436       .  A
C820        C821   1.423       .  A
C821        C823   1.399       .  A
C821        C822   1.405       .  A
C822        H833   1.085   1_545  S
C823        C824   1.389       .  A
C823        H834   1.084       .  S
C824        C825   1.400       .  A
C824        H835   1.084       .  S
C825        C826   1.423       .  A
C825        C830   1.406       .  A
C826        C827   1.417       .  A
C827        C828   1.404       .  A
C827        H836   1.078       .  S
C828        C829   1.402       .  A
C828        H837   1.083       .  S
C829        C830   1.403       .  A
C830        H838   1.085       .  S
C839        C840   1.402       .  A
C839        C844   1.404       .  A
C840        C841   1.400       .  A
C840        H853   1.082       .  S
C841        C842   1.415       .  A
C841        H854   1.077       .  S
C842        C848   1.435       .  A
C842        C843   1.422       .  A
C843        C845   1.401       .  A
C843        C844   1.411       .  A
C844        H855   1.081       .  S
C845        C846   1.394       .  A
C845        H856   1.084       .  S
C846        C847   1.401       .  A
C846        H857   1.084       .  S
C847        C848   1.424       .  A
C847        C852   1.412       .  A
C848        C849   1.415       .  A
C849        C850   1.399       .  A
C849        H858   1.078       .  S
C850        C851   1.399       .  A
C850        H859   1.084       .  S
C851        C852   1.403       .  A
C852        H860   1.085       .  S
C861        C862   1.404       .  A
C861        C866   1.400       .  A
C862        C863   1.402       .  A
C862        H875   1.083       .  S
C863        C864   1.414       .  A
C863        H876   1.078       .  S
C864        C870   1.437       .  A
C864        C865   1.425       .  A
C865        C867   1.398       .  A
C865        C866   1.407       .  A
C866        H877   1.085       .  S
C867        C868   1.387       .  A
C867        H878   1.084       .  S
C868        C869   1.400       .  A
C868        H879   1.084       .  S
C869        C870   1.420       .  A
C869        C874   1.400       .  A
C870        C871   1.421       .  A
C871        C872   1.408       .  A
C871        H880   1.078       .  S
C872        C873   1.401       .  A
C872        H881   1.083       .  S
C873        C874   1.404       .  A
C874        H882   1.084       .  S
C883        C884   1.402       .  A
C883        C888   1.406       .  A
C884        C885   1.403       .  A
C884        H897   1.083       .  S
C885        C886   1.417       .  A
C885        H898   1.078       .  S
C886        C892   1.434       .  A
C886        C887   1.421       .  A
C887        C889   1.401       .  A
C887        C888   1.406       .  A
C888        H899   1.084       .  S
C889        C890   1.391       .  A
C889        H900   1.084       .  S
C890        C891   1.399       .  A
C890        H901   1.084   1_556  S
C891        C892   1.422       .  A
C891        C896   1.407       .  A
C892        C893   1.414       .  A
C893        C894   1.401       .  A
C893        H902   1.078       .  S
C894        C895   1.400       .  A
C894        H903   1.084       .  S
C895        C896   1.401       .  A
C896        H904   1.085   1_556  S
C905        C906   1.400       .  A
C906        C907   1.397       .  A
C906        H919   1.083       .  S
C907       C1246   1.414   1_455  A
C907        H920   1.079       .  S
C908       C1245   1.415   1_545  A
C908        C914   1.433       .  A
C909        C911   1.399       .  A
C909        C910   1.405       .  A
C910        H921   1.085       .  S
C911        C912   1.389       .  A
C911        H922   1.084       .  S
C912        C913   1.399       .  A
C912        H923   1.084       .  S
C913        C918   1.402       .  A
C914       C1253   1.417   1_545  A
C915       C1252   1.416   1_455  A
C915        C916   1.399   1_455  A
C915        H924   1.079       .  S
C916        C917   1.397       .  A
C916        H925   1.079   1_655  S
C918        H926   1.084       .  S
C927       C1270   1.400   1_455  A
C928        C929   1.406       .  A
C928        H941   1.083       .  S
C929       C1268   1.417       .  A
C929        H942   1.079       .  S
C930       C1267   1.417       .  A
C930        C936   1.435       .  A
C931        C933   1.397       .  A
C931        C932   1.399       .  A
C932       C1265   1.402   1_655  A
C932        H943   1.084       .  S
C933        C934   1.384       .  A
C933        H944   1.084       .  S
C934        C935   1.397       .  A
C934        H945   1.084       .  S
C935        C940   1.398   1_545  A
C936       C1275   1.419       .  A
C937       C1274   1.417       .  A
C937        C938   1.407       .  A
C937        H946   1.079       .  S
C938        H947   1.081       .  S
C939       C1278   1.402       .  A
C940       C1277   1.402       .  A
C940        H948   1.083       .  S
C949        C950   1.403       .  A
C949        C954   1.406       .  A
C950        C951   1.404       .  A
C950        H963   1.081       .  S
C951        C952   1.417       .  A
C951        H964   1.078       .  S
C952        C958   1.437       .  A
C952        C953   1.421       .  A
C953        C955   1.400       .  A
C953        C954   1.407       .  A
C954        H965   1.083       .  S
C955        C956   1.391       .  A
C955        H966   1.084       .  S
C956        C957   1.400       .  A
C956        H967   1.084       .  S
C957        C958   1.424       .  A
C957        C962   1.410       .  A
C958        C959   1.416       .  A
C959        C960   1.403       .  A
C959        H968   1.078       .  S
C960        C961   1.400       .  A
C960        H969   1.083       .  S
C961        C962   1.402       .  A
C962        H970   1.085       .  S
C971        C972   1.401       .  A
C971        C976   1.401       .  A
C972        C973   1.400       .  A
C972        H985   1.083       .  S
C973        C974   1.416       .  A
C973        H986   1.077       .  S
C974        C980   1.432       .  A
C974        C975   1.422       .  A
C975        C977   1.399       .  A
C975        C976   1.401       .  A
C976        H987   1.084       .  S
C977        C978   1.387       .  A
C977        H988   1.084       .  S
C978        C979   1.399       .  A
C978        H989   1.084       .  S
C979        C980   1.422       .  A
C979        C984   1.402       .  A
C980        C981   1.416       .  A
C981        C982   1.400       .  A
C981        H990   1.077       .  S
C982        C983   1.401       .  A
C982        H991   1.083       .  S
C983        C984   1.402       .  A
C984        H992   1.085       .  S
C993        C994   1.405       .  A
C993        C998   1.403       .  A
C994        C995   1.390       .  A
C994       H1007   1.083       .  S
C995        C996   1.409       .  A
C995       H1008   1.078       .  S
C996       C1002   1.430       .  A
C996        C997   1.426       .  A
C997        C999   1.400       .  A
C997        C998   1.412       .  A
C998       H1009   1.084       .  S
C999       C1000   1.392       .  A
C999       H1010   1.084       .  S
C1000      C1001   1.401       .  A
C1000      H1011   1.084       .  S
C1001      C1002   1.420       .  A
C1001      C1006   1.403       .  A
C1002      C1003   1.420       .  A
C1003      C1004   1.398       .  A
C1003      H1012   1.078       .  S
C1004      C1005   1.393       .  A
C1004      H1013   1.083       .  S
C1005      C1006   1.403       .  A
C1006      H1014   1.086       .  S
N1015      C1019   1.362       .  A
N1015      C1016   1.363       .  A
N1015      C1287   1.447       .  S
C1016      C1017   1.381       .  A
C1016      C1343   1.475       .  S
C1017      C1018   1.364       .  A
C1017      H1020   1.082       .  S
C1018      C1019   1.376       .  A
C1018      H1021   1.076       .  S
C1019      C1309   1.477       .  S
Zn1022     O1026   1.954   1_565  S
Zn1022     O1027   2.017       .  S
Zn1022     O1031   2.039   1_455  S
Zn1023     O1028   2.016   1_455  S
Zn1023     O1030   2.027       .  S
Zn1024     O1026   1.935   1_655  S
Zn1024     O1029   2.014   1_545  S
Zn1024     O1035   1.997       .  S
Zn1025     O1033   2.046   1_556  S
Zn1025     O1037   2.046       .  S
O1027      C1039   1.276   1_565  A
O1028      C1040   1.273       .  A
O1029      C1041   1.272       .  A
O1031      C1041   1.275       .  A
O1032      C1040   1.275       .  A
O1034      C1043   1.278       .  A
O1035      C1042   1.275   1_656  A
O1036      C1043   1.275       .  A
O1037      C1044   1.278       .  A
O1038      C1044   1.271       .  A
C1039      C1243   1.482       .  S
C1040      C1321   1.483       .  S
C1041      C1199   1.485       .  S
C1042      C1265   1.490       .  S
C1043      C1221   1.482       .  S
C1044      C1331   1.484       .  S
N1045      C1049   1.366       .  A
N1045      C1046   1.366       .  A
N1045      C1177   1.452   1_556  S
C1046      C1047   1.380       .  A
C1046      C1233   1.482       .  S
C1047      C1048   1.365       .  A
C1047      H1050   1.081       .  S
C1048      C1049   1.384       .  A
C1048      H1051   1.082       .  S
C1049      C1211   1.488       .  S
N1052      C1277   1.452       .  S
C1053      C1054   1.385       .  A
C1053      C1145   1.481       .  S
C1054      H1057   1.082       .  S
C1055      C1056   1.378       .  A
C1055      H1058   1.081       .  S
C1056      C1155   1.478       .  S
Zn1059     O1063   1.937       .  S
Zn1059     O1064   2.043       .  S
Zn1059     O1068   1.995       .  S
Zn1059     O1075   2.050       .  S
Zn1060     O1063   1.931       .  S
Zn1060     O1065   2.015       .  S
Zn1060     O1067   2.020       .  S
Zn1060     O1071   2.014       .  S
Zn1061     O1063   1.949       .  S
Zn1061     O1066   2.045       .  S
Zn1061     O1069   2.048       .  S
Zn1061     O1072   2.031       .  S
Zn1062     O1063   1.925       .  S
Zn1062     O1070   2.024       .  S
Zn1062     O1073   2.029       .  S
Zn1062     O1074   2.022       .  S
O1064      C1076   1.278       .  A
O1065      C1077   1.274       .  A
O1066      C1078   1.278       .  A
O1067      C1076   1.275       .  A
O1068      C1078   1.272       .  A
O1069      C1077   1.279       .  A
O1070      C1079   1.277       .  A
O1071      C1080   1.274       .  A
O1072      C1079   1.276       .  A
O1073      C1080   1.275       .  A
O1074      C1081   1.275       .  A
O1075      C1081   1.279       .  A
C1076      C1089   1.488       .  S
C1077      C1299   1.474       .  S
C1078      C1167   1.476       .  S
C1079      C1111   1.480       .  S
C1080      C1133   1.474       .  S
C1081      C1189   1.479       .  S
N1082      C1083   1.359   1_455  A
N1082      C1255   1.440       .  S
C1083      C1084   1.378       .  A
C1083      C1123   1.474   1_545  S
C1084      H1087   1.078       .  S
C1085      C1086   1.379       .  A
C1085      H1088   1.082       .  S
C1086      C1101   1.476       .  S
C1089      C1090   1.403       .  A
C1089      C1094   1.403       .  A
C1090      C1091   1.399       .  A
C1090      H1103   1.083       .  S
C1091      C1092   1.414       .  A
C1091      H1104   1.078       .  S
C1092      C1098   1.434       .  A
C1092      C1093   1.424       .  A
C1093      C1095   1.399       .  A
C1093      C1094   1.409       .  A
C1094      H1105   1.084       .  S
C1095      C1096   1.390       .  A
C1095      H1106   1.084       .  S
C1096      C1097   1.399       .  A
C1096      H1107   1.084       .  S
C1097      C1098   1.422       .  A
C1097      C1102   1.405       .  A
C1098      C1099   1.418       .  A
C1099      C1100   1.401       .  A
C1099      H1108   1.077       .  S
C1100      C1101   1.398       .  A
C1100      H1109   1.082       .  S
C1101      C1102   1.399       .  A
C1102      H1110   1.085       .  S
C1111      C1112   1.401       .  A
C1111      C1116   1.400       .  A
C1112      C1113   1.401       .  A
C1112      H1125   1.083       .  S
C1113      C1114   1.417       .  A
C1113      H1126   1.077       .  S
C1114      C1120   1.432       .  A
C1114      C1115   1.423       .  A
C1115      C1117   1.399       .  A
C1115      C1116   1.404       .  A
C1116      H1127   1.085       .  S
C1117      C1118   1.388       .  A
C1117      H1128   1.084       .  S
C1118      C1119   1.398       .  A
C1118      H1129   1.084       .  S
C1119      C1120   1.423       .  A
C1119      C1124   1.403       .  A
C1120      C1121   1.416       .  A
C1121      C1122   1.399       .  A
C1121      H1130   1.077       .  S
C1122      C1123   1.398       .  A
C1122      H1131   1.081       .  S
C1123      C1124   1.398       .  A
C1124      H1132   1.085   1_565  S
C1133      C1134   1.400       .  A
C1133      C1138   1.397       .  A
C1134      C1135   1.401       .  A
C1134      H1147   1.083       .  S
C1135      C1136   1.415       .  A
C1135      H1148   1.078       .  S
C1136      C1142   1.432       .  A
C1136      C1137   1.424       .  A
C1137      C1139   1.397       .  A
C1137      C1138   1.402       .  A
C1138      H1149   1.085       .  S
C1139      C1140   1.386       .  A
C1139      H1150   1.084       .  S
C1140      C1141   1.399       .  A
C1140      H1151   1.084       .  S
C1141      C1142   1.420       .  A
C1141      C1146   1.398       .  A
C1142      C1143   1.420       .  A
C1143      C1144   1.404       .  A
C1143      H1152   1.078       .  S
C1144      C1145   1.399       .  A
C1144      H1153   1.083       .  S
C1145      C1146   1.401       .  A
C1146      H1154   1.086       .  S
C1155      C1156   1.399       .  A
C1155      C1160   1.399       .  A
C1156      C1157   1.399       .  A
C1156      H1169   1.083       .  S
C1157      C1158   1.415       .  A
C1157      H1170   1.078       .  S
C1158      C1164   1.429       .  A
C1158      C1159   1.422       .  A
C1159      C1161   1.398       .  A
C1159      C1160   1.401       .  A
C1160      H1171   1.085       .  S
C1161      C1162   1.388       .  A
C1161      H1172   1.084       .  S
C1162      C1163   1.399       .  A
C1162      H1173   1.084       .  S
C1163      C1164   1.421       .  A
C1163      C1168   1.401       .  A
C1164      C1165   1.417       .  A
C1165      C1166   1.401       .  A
C1165      H1174   1.078       .  S
C1166      C1167   1.399       .  A
C1166      H1175   1.083       .  S
C1167      C1168   1.400       .  A
C1168      H1176   1.085       .  S
C1177      C1178   1.405       .  A
C1177      C1182   1.401       .  A
C1178      C1179   1.401       .  A
C1178      H1191   1.082       .  S
C1179      C1180   1.415       .  A
C1179      H1192   1.078       .  S
C1180      C1186   1.434       .  A
C1180      C1181   1.421       .  A
C1181      C1183   1.400       .  A
C1181      C1182   1.405       .  A
C1182      H1193   1.074       .  S
C1183      C1184   1.390       .  A
C1183      H1194   1.084       .  S
C1184      C1185   1.399       .  A
C1184      H1195   1.084       .  S
C1185      C1186   1.424       .  A
C1185      C1190   1.407       .  A
C1186      C1187   1.416       .  A
C1187      C1188   1.401       .  A
C1187      H1196   1.078       .  S
C1188      C1189   1.401       .  A
C1188      H1197   1.084       .  S
C1189      C1190   1.399       .  A
C1190      H1198   1.085       .  S
C1199      C1200   1.402       .  A
C1199      C1204   1.401       .  A
C1200      C1201   1.399       .  A
C1200      H1213   1.083       .  S
C1201      C1202   1.415       .  A
C1201      H1214   1.078       .  S
C1202      C1208   1.434       .  A
C1202      C1203   1.424       .  A
C1203      C1205   1.399       .  A
C1203      C1204   1.407       .  A
C1204      H1215   1.085       .  S
C1205      C1206   1.389       .  A
C1205      H1216   1.084       .  S
C1206      C1207   1.400       .  A
C1206      H1217   1.084       .  S
C1207      C1208   1.421       .  A
C1207      C1212   1.403       .  A
C1208      C1209   1.418       .  A
C1209      C1210   1.402       .  A
C1209      H1218   1.077       .  S
C1210      C1211   1.400       .  A
C1210      H1219   1.083       .  S
C1211      C1212   1.403       .  A
C1212      H1220   1.084       .  S
C1221      C1222   1.401       .  A
C1221      C1226   1.402       .  A
C1222      C1223   1.400       .  A
C1222      H1235   1.083       .  S
C1223      C1224   1.417       .  A
C1223      H1236   1.077       .  S
C1224      C1230   1.433       .  A
C1224      C1225   1.422       .  A
C1225      C1227   1.399       .  A
C1225      C1226   1.405       .  A
C1226      H1237   1.085       .  S
C1227      C1228   1.390       .  A
C1227      H1238   1.084       .  S
C1228      C1229   1.399       .  A
C1228      H1239   1.084   1_556  S
C1229      C1230   1.423       .  A
C1229      C1234   1.406       .  A
C1230      C1231   1.414       .  A
C1231      C1232   1.397       .  A
C1231      H1240   1.077       .  S
C1232      C1233   1.400       .  A
C1232      H1241   1.082       .  S
C1233      C1234   1.401       .  A
C1234      H1242   1.085   1_556  S
C1243      C1244   1.402   1_545  A
C1244      C1245   1.399       .  A
C1244      H1257   1.083       .  S
C1245      H1258   1.077       .  S
C1246      C1252   1.430       .  A
C1247      C1249   1.399       .  A
C1247      C1248   1.406       .  A
C1248      H1259   1.085       .  S
C1249      C1250   1.389       .  A
C1249      H1260   1.084       .  S
C1250      C1251   1.399       .  A
C1250      H1261   1.084       .  S
C1251      C1256   1.404       .  A
C1253      C1254   1.400       .  A
C1253      H1262   1.077       .  S
C1254      C1255   1.397   1_565  A
C1254      H1263   1.081       .  S
C1256      H1264   1.083       .  S
C1266      C1267   1.405       .  A
C1266      H1279   1.083       .  S
C1267      H1280   1.078       .  S
C1268      C1274   1.437       .  A
C1269      C1271   1.397       .  A
C1269      C1270   1.400       .  A
C1270      H1281   1.085       .  S
C1271      C1272   1.384       .  A
C1271      H1282   1.084       .  S
C1272      C1273   1.397       .  A
C1272      H1283   1.084       .  S
C1273      C1278   1.396       .  A
C1275      C1276   1.407       .  A
C1275      H1284   1.078       .  S
C1276      H1285   1.082       .  S
C1278      H1286   1.083       .  S
C1287      C1288   1.402       .  A
C1287      C1292   1.401       .  A
C1288      C1289   1.403       .  A
C1288      H1301   1.082       .  S
C1289      C1290   1.417       .  A
C1289      H1302   1.078       .  S
C1290      C1296   1.433       .  A
C1290      C1291   1.421       .  A
C1291      C1293   1.399       .  A
C1291      C1292   1.401       .  A
C1292      H1303   1.083       .  S
C1293      C1294   1.388       .  A
C1293      H1304   1.084       .  S
C1294      C1295   1.398       .  A
C1294      H1305   1.084       .  S
C1295      C1296   1.424       .  A
C1295      C1300   1.404       .  A
C1296      C1297   1.416       .  A
C1297      C1298   1.402       .  A
C1297      H1306   1.078       .  S
C1298      C1299   1.400       .  A
C1298      H1307   1.083       .  S
C1299      C1300   1.396       .  A
C1300      H1308   1.085       .  S
C1309      C1310   1.398       .  A
C1309      C1314   1.399       .  A
C1310      C1311   1.401       .  A
C1310      H1323   1.083       .  S
C1311      C1312   1.418       .  A
C1311      H1324   1.077       .  S
C1312      C1318   1.432       .  A
C1312      C1313   1.422       .  A
C1313      C1315   1.398       .  A
C1313      C1314   1.400       .  A
C1314      H1325   1.085       .  S
C1315      C1316   1.387       .  A
C1315      H1326   1.084       .  S
C1316      C1317   1.399       .  A
C1316      H1327   1.084       .  S
C1317      C1318   1.423       .  A
C1317      C1322   1.404       .  A
C1318      C1319   1.415       .  A
C1319      C1320   1.400       .  A
C1319      H1328   1.077       .  S
C1320      C1321   1.402       .  A
C1320      H1329   1.083       .  S
C1321      C1322   1.401       .  A
C1322      H1330   1.085       .  S
C1331      C1332   1.405       .  A
C1331      C1336   1.400       .  A
C1332      C1333   1.396       .  A
C1332      H1345   1.083       .  S
C1333      C1334   1.412       .  A
C1333      H1346   1.077       .  S
C1334      C1340   1.431       .  A
C1334      C1335   1.425       .  A
C1335      C1337   1.398       .  A
C1335      C1336   1.405       .  A
C1336      H1347   1.084       .  S
C1337      C1338   1.388       .  A
C1337      H1348   1.084       .  S
C1338      C1339   1.399       .  A
C1338      H1349   1.084       .  S
C1339      C1340   1.420       .  A
C1339      C1344   1.399       .  A
C1340      C1341   1.420       .  A
C1341      C1342   1.402       .  A
C1341      H1350   1.077       .  S
C1342      C1343   1.397       .  A
C1342      H1351   1.083       .  S
C1343      C1344   1.400       .  A
C1344      H1352   1.085       .  S
