geometry optimzed in LAMMPS
_audit_creation_date              2020-12-01 
_audit_creation_method            'lammps2cif' 
_symmetry_space_group_name_H-M    'P1' 
_symmetry_Int_Tables_number       1 
_symmetry_cell_setting            triclinic 
loop_ 
_symmetry_equiv_pos_as_xyz 
  x,y,z 
_cell_length_a                    28.97080708 
_cell_length_b                    28.880069928916186 
_cell_length_c                    29.120785257572525 
_cell_angle_alpha                 89.86857602980959 
_cell_angle_beta                  89.87383891841431 
_cell_angle_gamma                 90.14500516473514 
loop_ 
_atom_site_label 
_atom_site_type_symbol 
_atom_site_fract_x 
_atom_site_fract_y 
_atom_site_fract_z 
_atom_site_charge 
O1          O  0.42241055  0.40619269  0.91038063    -0.75300
O2          O  0.46573272  0.44698468  0.85866400    -0.54200
C3          C  0.43463004  0.41698560  0.86915401     0.78500
O4          O  0.42067327  0.59066087  0.06608223    -0.59900
O5          O  0.46183995  0.55091817  0.12006507    -0.52900
C6          C  0.43218451  0.58155181  0.10779870     0.70500
O7          O  0.41809324  0.58563386  0.91142274    -0.74400
O8          O  0.46070481  0.54580491  0.85875312    -0.55000
C9          C  0.42940429  0.57525330  0.86994785     0.76500
O10         O  0.41993248  0.40335998  0.06495866    -0.59600
O11         O  0.45657690  0.44766222  0.11856163    -0.52700
C12         C  0.42782652  0.41589216  0.10659571     0.73100
Zr13       Zr  0.44576855  0.42614269  0.98847419     2.54700
O14         O  0.36205196  0.41927957  0.98602973    -0.80100
O15         O  0.45602564  0.34244788  0.98968485    -0.93600
Zr16       Zr  0.44026736  0.56349878  0.98908355     2.64700
O17         O  0.35768834  0.54794827  0.99265535    -0.98500
O18         O  0.42688271  0.64656960  0.98569398    -0.80600
O19         O  0.44313868  0.49519370  0.94432626    -0.83900
O20         O  0.44071716  0.49469645  0.03313265    -2.18600
O21         O  0.60572454  0.41045779  0.06933896    -0.67300
O22         O  0.55858366  0.44627738  0.12117450    -0.51900
C23         C  0.59174321  0.41881236  0.11053850     0.71500
O24         O  0.60658719  0.58827282  0.91387465    -0.60200
O25         O  0.56222742  0.55152593  0.86032994    -0.52200
C26         C  0.59449230  0.57959272  0.87217372     0.73300
O27         O  0.59657019  0.59371290  0.07011339    -0.71600
O28         O  0.55907691  0.54726887  0.12172114    -0.50300
C29         C  0.58706020  0.58022351  0.11137252     0.74600
O30         O  0.60635653  0.40680971  0.91434231    -0.66900
O31         O  0.56750769  0.44975941  0.86116986    -0.54100
C32         C  0.59687302  0.41843874  0.87268462     0.73000
Zr33       Zr  0.58298942  0.43166197  0.99114888     2.77500
O34         O  0.66686935  0.43725430  0.98947655    -0.97700
O35         O  0.58389588  0.34741783  0.99268981    -0.78500
Zr36       Zr  0.57797704  0.56981516  0.99127685     2.70100
O37         O  0.66149207  0.57748526  0.99642494    -0.79800
O38         O  0.56860466  0.65346164  0.98572144    -0.98800
Zr39       Zr  0.51374034  0.49852512  0.90276284     2.21500
Zr40       Zr  0.50971170  0.49753047  0.07721134     2.11100
O41         O  0.58049339  0.50055807  0.03529762    -2.47500
O42         O  0.58263259  0.50095337  0.94701810    -0.79600
O43         O  0.51343327  0.42763440  0.03432287    -0.71800
O44         O  0.50997257  0.56834525  0.94608455    -2.32700
O45         O  0.51529350  0.42820582  0.94550823    -2.28900
O46         O  0.50823662  0.56765831  0.03418687    -0.73500
H47         H  0.41364527  0.49406476  0.05252574     0.78500
H48         H  0.50936647  0.59512884  0.92618658     0.79600
H49         H  0.60663829  0.50149880  0.05575230     0.81800
H50         H  0.51644525  0.40167969  0.92544088     0.79400
H51         H  0.45797382  0.66017966  0.98124849     0.42400
H52         H  0.56638636  0.66430376  0.01787502     0.41400
H53         H  0.67220788  0.54670285  0.00686584     0.41100
H54         H  0.67484060  0.45715454  0.01593890     0.39000
H55         H  0.55353622  0.33862898  0.00576452     0.42200
H56         H  0.46887145  0.33474769  0.95912520     0.36900
H57         H  0.35606673  0.38560917  0.98354358     0.43100
H58         H  0.34319810  0.57618142  0.97991099     0.39500
H59         H  0.67762475  0.40600341  0.99845581     0.44400
H60         H  0.42429687  0.32964685  0.98925555     0.43100
H61         H  0.35234342  0.52390203  0.96905686     0.43200
H62         H  0.59896263  0.66497995  0.97489009     0.43600
O63         O  0.42450103  0.92672919  0.39282614    -0.75300
O64         O  0.45756176  0.87226356  0.43915910    -0.54200
C65         C  0.43072168  0.88470428  0.40621121     0.78500
O66         O  0.61015709  0.08181927  0.40800542    -0.59900
O67         O  0.56327034  0.13407894  0.44358188    -0.52900
C68         C  0.59639273  0.12328670  0.41636207     0.70500
O69         O  0.60663562  0.92627341  0.40041702    -0.74400
O70         O  0.55987270  0.87234417  0.43452257    -0.55000
C71         C  0.59256410  0.88450469  0.40698346     0.76500
O72         O  0.42813367  0.08254391  0.39510094    -0.59600
O73         O  0.46354235  0.13461357  0.44229924    -0.52700
C74         C  0.43674899  0.12404427  0.40880277     0.73100
Zr75       Zr  0.44765872  0.00375669  0.41848124     2.54700
O76         O  0.45648292  0.00352888  0.33536133    -0.80100
O77         O  0.36371246  0.00573702  0.41523878    -0.93600
Zr78       Zr  0.58487838  0.00326868  0.42632404     2.64700
O79         O  0.58951025  0.00777854  0.34289018    -0.98500
O80         O  0.66858202  0.00119361  0.43354600    -0.80600
O81         O  0.51599463  0.95883165  0.42028351    -0.83900
O82         O  0.51651784  0.04794413  0.42203055    -2.18600
O83         O  0.41689243  0.07929508  0.57871581    -0.67300
O84         O  0.46018437  0.13289139  0.54001103    -0.51900
C85         C  0.42851438  0.12121150  0.56871657     0.71500
O86         O  0.59538849  0.92047965  0.58592014    -0.60200
O87         O  0.56078333  0.86877540  0.53770798    -0.52200
C88         C  0.58717017  0.87903392  0.57165491     0.73300
O89         O  0.60123726  0.07773384  0.58509250    -0.71600
O90         O  0.56377080  0.13200014  0.54195547    -0.50300
C91         C  0.59281584  0.11981785  0.57292405     0.74600
O92         O  0.41783637  0.92306996  0.57778519    -0.66900
O93         O  0.46327098  0.86988082  0.54143196    -0.54100
C94         C  0.43126035  0.88141195  0.56982681     0.73000
Zr95       Zr  0.43992495  0.00135660  0.55532614     2.77500
O96         O  0.43689892  0.99908844  0.63891501    -0.97700
O97         O  0.35632456  0.99974994  0.54734846    -0.78500
Zr98       Zr  0.57689882  0.99976316  0.56253708     2.70100
O99         O  0.56895861  0.00042017  0.64577310    -0.79800
O100        O  0.66074330  0.99492611  0.56549172    -0.98800
Zr101      Zr  0.51107053  0.91367302  0.48842296     2.21500
Zr102      Zr  0.51259321  0.08963635  0.49220053     2.11100
O103        O  0.50886523  0.04527227  0.56104342    -2.47500
O104        O  0.50785550  0.95590317  0.55837592    -0.79600
O105        O  0.44261749  0.04702149  0.48757263    -0.71800
O106        O  0.58127175  0.95665792  0.49335088    -2.32700
O107        O  0.44206889  0.95811810  0.48617474    -2.28900
O108        O  0.58221499  0.04627242  0.49545425    -0.73500
H109        H  0.51810587  0.06861645  0.39597375     0.78500
H110        H  0.60760068  0.93624701  0.49416918     0.79600
H111        H  0.50788315  0.06502283  0.58773627     0.81800
H112        H  0.41513839  0.93842195  0.48489792     0.79400
H113        H  0.67480030  0.97562815  0.45535478     0.42400
H114        H  0.67158704  0.01729665  0.54198635     0.41400
H115        H  0.60097620  0.00305309  0.65731252     0.41100
H116        H  0.46035098  0.02186603  0.64900707     0.39000
H117        H  0.34985626  0.02167001  0.52198675     0.42200
H118        H  0.35349067  0.97871180  0.43364934     0.36900
H119        H  0.48647750  0.98807761  0.32997789     0.43100
H120        H  0.56688515  0.03184621  0.33411910     0.39500
H121        H  0.40694201  0.01338172  0.64698785     0.44400
H122        H  0.35619519  0.99737521  0.38315369     0.43100
H123        H  0.61997286  0.02205253  0.33649703     0.43200
H124        H  0.66925001  0.00921580  0.59516756     0.43600
O125        O  0.93122396  0.59762358  0.40271119    -0.75300
O126        O  0.87942917  0.55203376  0.44113556    -0.54200
C127        C  0.88975706  0.58413135  0.41232442     0.78500
O128        O  0.08746191  0.41136801  0.39645060    -0.59900
O129        O  0.14139216  0.45050928  0.43823421    -0.52900
C130        C  0.12938779  0.42007283  0.40829903     0.70500
O131        O  0.93284129  0.41682886  0.39614216    -0.74400
O132        O  0.88062980  0.45262501  0.44280072    -0.55000
C133        C  0.89149467  0.42468786  0.41024104     0.76500
O134        O  0.08834876  0.59903001  0.39831615    -0.59600
O135        O  0.14191829  0.55404659  0.43447575    -0.52700
C136        C  0.13013635  0.58584725  0.40581038     0.73100
Zr137      Zr  0.01084980  0.57733337  0.42411428     2.54700
O138        O  0.01001987  0.58735445  0.34112064    -0.80100
O139        O  0.01277138  0.66077615  0.43611375    -0.93600
Zr140      Zr  0.01094000  0.43995102  0.41679762     2.64700
O141        O  0.01354314  0.46006158  0.33563543    -0.98500
O142        O  0.00612322  0.35766749  0.39947322    -0.80600
O143        O  0.96618371  0.50840314  0.42043074    -0.83900
O144        O  0.05546249  0.50848667  0.41875063    -2.18600
O145        O  0.09269856  0.59522562  0.57927163    -0.67300
O146        O  0.14458742  0.55559642  0.53557280    -0.51900
C147        C  0.13420205  0.58531804  0.56671802     0.71500
O148        O  0.93562226  0.40887666  0.57803432    -0.60200
O149        O  0.88225991  0.45484300  0.54286481    -0.52200
C150        C  0.89390795  0.42223888  0.57049840     0.73300
O151        O  0.09136242  0.40902741  0.57525254    -0.71600
O152        O  0.14393216  0.45632729  0.53991189    -0.50300
C153        C  0.13278827  0.42342119  0.56770020     0.74600
O154        O  0.93718009  0.59138914  0.58667043    -0.66900
O155        O  0.88367852  0.55530633  0.54160436    -0.54100
C156        C  0.89546084  0.58305157  0.57394782     0.73000
Zr157      Zr  0.01428695  0.57004442  0.56036208     2.77500
O158        O  0.01993501  0.56385743  0.64355525    -0.97700
O159        O  0.01314652  0.65424612  0.56332844    -0.78500
Zr160      Zr  0.01332854  0.43153145  0.55335452     2.70100
O161        O  0.01558895  0.42121920  0.63628270    -0.79800
O162        O  0.01118765  0.34846577  0.53926397    -0.98800
Zr163      Zr  0.92510129  0.50409143  0.49106411     2.21500
Zr164      Zr  0.10015501  0.50424020  0.48720629     2.11100
O165        O  0.05765408  0.50077863  0.55721137    -2.47500
O166        O  0.96963365  0.50075812  0.55949874    -0.79600
O167        O  0.05735362  0.57434829  0.49112938    -0.71800
O168        O  0.96800965  0.43423695  0.48611035    -2.32700
O169        O  0.96799702  0.57461440  0.49335437    -2.28900
O170        O  0.05674778  0.43427652  0.48422215    -0.73500
H171        H  0.07493639  0.50926347  0.39182132     0.78500
H172        H  0.94803151  0.40742927  0.48544079     0.79600
H173        H  0.07788577  0.49991324  0.58350831     0.81800
H174        H  0.94794245  0.60124862  0.49485392     0.79400
H175        H  0.99221569  0.34360979  0.42730964     0.42400
H176        H  0.04032159  0.34179832  0.52274051     0.41400
H177        H  0.02218012  0.45255194  0.64838292     0.41100
H178        H  0.01727165  0.59615161  0.65457564     0.39000
H179        H  0.02278607  0.66418514  0.53219057     0.42200
H180        H  0.98015971  0.67074810  0.43435083     0.36900
H181        H  0.99240424  0.56040896  0.32955765     0.43100
H182        H  0.01361832  0.42988773  0.31959252     0.39500
H183        H  0.99072757  0.54883776  0.65325850     0.44400
H184        H  0.02721315  0.67345104  0.40790121     0.43100
H185        H  0.98270480  0.47320488  0.32911992     0.43200
H186        H  0.01531033  0.33424221  0.56994017     0.43600
C187        C  0.74337942  0.32982040  0.31825515     0.80200
N188        N  0.72428135  0.34834484  0.27980710    -0.78100
C189        C  0.68536905  0.32955811  0.26154767     0.82700
N190        N  0.66570077  0.29210817  0.28218286    -0.78000
C191        C  0.68520357  0.27290388  0.32002585     0.82800
N192        N  0.72362901  0.29224417  0.33818247    -0.79700
C193        C  0.73647684  0.67159957  0.31961088     0.80200
N194        N  0.72043583  0.71287631  0.33520574    -0.78100
C195        C  0.68349444  0.73339077  0.31501719     0.82700
N196        N  0.66314162  0.71260917  0.27849082    -0.78000
C197        C  0.67902522  0.67168016  0.26220759     0.82800
N198        N  0.71532005  0.65088893  0.28336388    -0.79700
C199        C  0.68726265  0.32709904  0.72081248     0.80200
N200        N  0.66911331  0.28772539  0.70274905    -0.78100
C201        C  0.68755746  0.26916905  0.66393979     0.82700
N202        N  0.72447965  0.28991713  0.64367935    -0.78000
C203        C  0.74331542  0.32874799  0.66194096     0.82800
N204        N  0.72408396  0.34754336  0.70010085    -0.79700
C205        C  0.33709366  0.73585818  0.31209496     0.80200
N206        N  0.35708060  0.71636084  0.27445290    -0.78100
C207        C  0.33880028  0.67749810  0.25520009     0.82700
N208        N  0.30064001  0.65807585  0.27447142    -0.78000
C209        C  0.28013753  0.67745483  0.31161803     0.82800
N210        N  0.29865036  0.71612058  0.33053175    -0.79700
C211        C  0.34047550  0.67078139  0.72033737     0.80200
N212        N  0.35944230  0.71076936  0.70431641    -0.78100
C213        C  0.34067136  0.73289635  0.66757577     0.82700
N214        N  0.30213679  0.71514278  0.64764432    -0.78000
C215        C  0.28306420  0.67527881  0.66348888     0.82800
N216        N  0.30283377  0.65270657  0.69926115    -0.79700
C217        C  0.34231266  0.33082624  0.71678328     0.80200
N218        N  0.36045672  0.29309325  0.69582534    -0.78100
C219        C  0.34085598  0.27596643  0.65713353     0.82700
N220        N  0.30316408  0.29713407  0.63925678    -0.78000
C221        C  0.28494104  0.33512728  0.65979946     0.82800
N222        N  0.30466743  0.35188745  0.69864055    -0.79700
C223        C  0.68481186  0.67156356  0.72001193     0.80200
N224        N  0.66351250  0.70818586  0.69975873    -0.78100
C225        C  0.68013727  0.72652959  0.66012246     0.82700
N226        N  0.71839668  0.70808966  0.64055397    -0.78000
C227        C  0.74048873  0.67195489  0.66065435     0.82800
N228        N  0.72349810  0.65376419  0.70036587    -0.79700
C229        C  0.34022675  0.27218618  0.31741976     0.80200
N230        N  0.35578982  0.28974655  0.27691449    -0.78100
C231        C  0.33381141  0.32602493  0.25689184     0.82700
N232        N  0.29558479  0.34412918  0.27706885    -0.78000
C233        C  0.27933753  0.32617885  0.31709395     0.82800
N234        N  0.30225564  0.29081687  0.33750751    -0.79700
C235        C  0.24461450  0.35828385  0.63909239    -0.05400
C236        C  0.21130370  0.33139012  0.61641945    -0.32900
C237        C  0.17392407  0.35221122  0.59429388     0.36400
C238        C  0.17026792  0.40071812  0.59320330    -0.05800
C239        C  0.20298470  0.42770741  0.61649854    -0.32800
C240        C  0.23969109  0.40686038  0.63987659     0.36300
H241        H  0.21428062  0.29400441  0.61577470     0.16700
O242        O  0.14239275  0.32496631  0.57188518    -0.60300
H243        H  0.19990643  0.46503827  0.61672519     0.16700
O244        O  0.27184239  0.43439389  0.66108218    -0.60400
H245        H  0.25892655  0.44075777  0.69199326     0.43700
H246        H  0.11951350  0.31592169  0.59567585     0.43600
C247        C  0.24476127  0.65357059  0.63851852    -0.05400
C248        C  0.25095121  0.60902636  0.62086413    -0.32900
C249        C  0.21587409  0.58723253  0.59614359     0.36400
C250        C  0.17279214  0.60923173  0.59033987    -0.05800
C251        C  0.16664510  0.65405213  0.60826980    -0.32800
C252        C  0.20267914  0.67660972  0.63140400     0.36300
H253        H  0.28349705  0.59124822  0.62571704     0.16700
O254        O  0.22363341  0.54365596  0.57930092    -0.60300
H255        H  0.13402881  0.67179919  0.60396876     0.16700
O256        O  0.19586950  0.72028818  0.64850139    -0.60400
H257        H  0.20385674  0.74155176  0.62288220     0.43700
H258        H  0.23926676  0.54849542  0.54932711     0.43600
C259        C  0.24040333  0.65431489  0.33352060    -0.05400
C260        C  0.24223136  0.60646947  0.34147370    -0.32900
C261        C  0.20652377  0.58380622  0.36489104     0.36400
C262        C  0.16744196  0.60881167  0.37952933    -0.05800
C263        C  0.16468619  0.65638281  0.36966441    -0.32800
C264        C  0.20124431  0.67933017  0.34761308     0.36300
H265        H  0.27207788  0.58675335  0.33057788     0.16700
O266        O  0.20953896  0.53693718  0.37210001    -0.60300
H267        H  0.13473753  0.67608835  0.38027693     0.16700
O268        O  0.19788946  0.72589183  0.33888982    -0.60400
H269        H  0.20812408  0.74125501  0.36755370     0.43700
H270        H  0.22947693  0.53332720  0.39951271     0.43600
C271        C  0.16659804  0.39346116  0.38564925    -0.05400
C272        C  0.16278656  0.38150795  0.33901721    -0.32900
C273        C  0.19911138  0.35912550  0.31627314     0.36400
C274        C  0.23953816  0.34754788  0.34039555    -0.05800
C275        C  0.24248414  0.35754144  0.38738821    -0.32800
C276        C  0.20675566  0.38086600  0.40987632     0.36300
H277        H  0.13211092  0.39066265  0.31984187     0.16700
O278        O  0.19481530  0.34876340  0.27053073    -0.60300
H279        H  0.27323490  0.34845322  0.40648918     0.16700
O280        O  0.21098857  0.39024059  0.45583947    -0.60400
H281        H  0.22875451  0.41959929  0.45741413     0.43700
H282        H  0.18089626  0.31736479  0.26972354     0.43600
C283        C  0.85789126  0.60790804  0.59697300    -0.05400
C284        C  0.82357309  0.62831588  0.56994526    -0.32900
C285        C  0.78603456  0.65055269  0.59021365     0.36400
C286        C  0.78148543  0.65126061  0.63846147    -0.05800
C287        C  0.81618941  0.63103755  0.66556049    -0.32800
C288        C  0.85459293  0.61002664  0.64511198     0.36300
H289        H  0.82591806  0.62705349  0.53279882     0.16700
O290        O  0.75290833  0.66943806  0.56238147    -0.60300
H291        H  0.81358603  0.63163388  0.70267618     0.16700
O292        O  0.88807773  0.59087642  0.67239375    -0.60400
H293        H  0.88105927  0.55725169  0.67323968     0.43700
H294        H  0.76563019  0.69983928  0.55263211     0.43600
C295        C  0.78274377  0.35197658  0.63912727    -0.05400
C296        C  0.78692326  0.40036705  0.64185609    -0.32900
C297        C  0.82292056  0.42357759  0.61942722     0.36400
C298        C  0.85638445  0.39830637  0.59508156    -0.05800
C299        C  0.85289499  0.34994361  0.59293050    -0.32800
C300        C  0.81613716  0.32673912  0.61429442     0.36300
H301        H  0.76165093  0.42046013  0.66064322     0.16700
O302        O  0.82595192  0.47088083  0.62264818    -0.60300
H303        H  0.87823910  0.33020844  0.57384594     0.16700
O304        O  0.81331875  0.27946315  0.61075756    -0.60400
H305        H  0.83208873  0.26730634  0.63652068     0.43700
H306        H  0.80539634  0.48299336  0.59824561     0.43600
C307        C  0.85391384  0.39968943  0.38710567    -0.05400
C308        C  0.85485460  0.39504916  0.33914058    -0.32900
C309        C  0.81894912  0.37254383  0.31609719     0.36400
C310        C  0.78228965  0.35292278  0.34124629    -0.05800
C311        C  0.78215944  0.35624561  0.38937229    -0.32800
C312        C  0.81723105  0.38005225  0.41229246     0.36300
H313        H  0.88309360  0.40971628  0.31939415     0.16700
O314        O  0.82079182  0.36851865  0.26921635    -0.60300
H315        H  0.75421408  0.34120320  0.40926293     0.16700
O316        O  0.81626841  0.38240064  0.45935057    -0.60400
H317        H  0.79705186  0.40981777  0.46656802     0.43700
H318        H  0.80846815  0.39817320  0.25722773     0.43600
C319        C  0.85086068  0.60680564  0.38853322    -0.05400
C320        C  0.81382501  0.57986459  0.37250536    -0.32900
C321        C  0.77649432  0.60044969  0.34987274     0.36400
C322        C  0.77561223  0.64881961  0.34313741    -0.05800
C323        C  0.81204844  0.67583584  0.36036441    -0.32800
C324        C  0.84944237  0.65519140  0.38287009     0.36300
H325        H  0.81398079  0.54263214  0.37729927     0.16700
O326        O  0.74068209  0.57302836  0.33532798    -0.60300
H327        H  0.81163506  0.71312333  0.35618750     0.16700
O328        O  0.88386945  0.68272332  0.40017258    -0.60400
H329        H  0.87543303  0.68783326  0.43280225     0.43700
H330        H  0.71714797  0.57484228  0.36004646     0.43600
C331        C  0.66507445  0.22953924  0.64117557    -0.05400
C332        C  0.66124969  0.22947151  0.59309708    -0.32900
C333        C  0.63789438  0.19381676  0.57051989     0.36400
C334        C  0.61850262  0.15707039  0.59601409    -0.05800
C335        C  0.62339115  0.15639832  0.64391841    -0.32800
C336        C  0.64627740  0.19246410  0.66657628     0.36300
H337        H  0.67548479  0.25774459  0.57299138     0.16700
O338        O  0.63413317  0.19528323  0.52355403    -0.60300
H339        H  0.60870957  0.12825841  0.66387943     0.16700
O340        O  0.65034264  0.19103328  0.71346277    -0.60400
H341        H  0.67757494  0.17119338  0.71945838     0.43700
H342        H  0.65891466  0.17476015  0.51190601     0.43600
C343        C  0.36124740  0.23536488  0.63417235    -0.05400
C344        C  0.38035394  0.19960105  0.66076826    -0.32900
C345        C  0.40098896  0.16128279  0.63980601     0.36400
C346        C  0.40383080  0.15904894  0.59167040    -0.05800
C347        C  0.38477481  0.19465983  0.56507152    -0.32800
C348        C  0.36323838  0.23245659  0.58589122     0.36300
H349        H  0.37922527  0.20133768  0.69791950     0.16700
O350        O  0.42048035  0.12749019  0.66659267    -0.60300
H351        H  0.38677400  0.19319636  0.52799159     0.16700
O352        O  0.34545885  0.26691228  0.55872564    -0.60400
H353        H  0.37122527  0.28911690  0.55406115     0.43700
H354        H  0.39498030  0.10561052  0.67362681     0.43600
C355        C  0.41362975  0.16241095  0.38475225    -0.05400
C356        C  0.39557614  0.19922988  0.41034317    -0.32900
C357        C  0.37109441  0.23481451  0.38887537     0.36400
C358        C  0.36580921  0.23483840  0.34076273    -0.05800
C359        C  0.38542325  0.19888788  0.31492768    -0.32800
C360        C  0.40876547  0.16255254  0.33663762     0.36300
H361        H  0.39953762  0.19988594  0.44727744     0.16700
O362        O  0.35385993  0.27023673  0.41508287    -0.60300
H363        H  0.38188069  0.19851456  0.27789641     0.16700
O364        O  0.42687785  0.12751620  0.31052704    -0.60400
H365        H  0.45963547  0.13620364  0.30543312     0.43700
H366        H  0.32473109  0.25804856  0.42845360     0.43600
C367        C  0.66299743  0.23353346  0.34345036    -0.05400
C368        C  0.61475574  0.23224959  0.34708849    -0.32900
C369        C  0.59284234  0.19673345  0.37137362     0.36400
C370        C  0.61922354  0.16131305  0.39169280    -0.05800
C371        C  0.66738640  0.16190092  0.38721626    -0.32800
C372        C  0.68941890  0.19815465  0.36391890     0.36300
H373        H  0.59401288  0.25940060  0.33186636     0.16700
O374        O  0.54557570  0.19675590  0.37472503    -0.60300
H375        H  0.68796795  0.13462142  0.40243801     0.16700
O376        O  0.73661846  0.19791866  0.36005654    -0.60400
H377        H  0.74806434  0.21214280  0.38885152     0.43700
H378        H  0.53475042  0.17534070  0.35042169     0.43600
C379        C  0.40812560  0.84423467  0.59561406    -0.05400
C380        C  0.43420585  0.81397938  0.62278341    -0.32900
C381        C  0.41263820  0.77880488  0.64821613     0.36400
C382        C  0.36421146  0.77303512  0.64593835    -0.05800
C383        C  0.33835073  0.80376954  0.61879176    -0.32800
C384        C  0.35990525  0.83937960  0.59415474     0.36300
H385        H  0.47140264  0.81778333  0.62442207     0.16700
O386        O  0.43942681  0.74969505  0.67413029    -0.60300
H387        H  0.30123760  0.79990271  0.61619522     0.16700
O388        O  0.33382100  0.86779773  0.56680610    -0.60400
H389        H  0.32302158  0.89290457  0.58732972     0.43700
H390        H  0.44808795  0.72408895  0.65319917     0.43600
C391        C  0.61039743  0.84016751  0.59516140    -0.05400
C392        C  0.62425901  0.80159711  0.56935149    -0.32900
C393        C  0.64740345  0.76464948  0.59008497     0.36400
C394        C  0.65586649  0.76519564  0.63763734    -0.05800
C395        C  0.64081072  0.80301990  0.66381158    -0.32800
C396        C  0.61893894  0.84074305  0.64280462     0.36300
H397        H  0.61782415  0.80036605  0.53272273     0.16700
O398        O  0.65986683  0.72723707  0.56394603    -0.60300
H399        H  0.64680410  0.80370794  0.70052199     0.16700
O400        O  0.60461386  0.87717052  0.66935782    -0.60400
H401        H  0.63231654  0.89703650  0.67314988     0.43700
H402        H  0.68660564  0.73792815  0.54539977     0.43600
C403        C  0.66173254  0.77466708  0.33590853    -0.05400
C404        C  0.61374738  0.78049592  0.33154748    -0.32900
C405        C  0.59086503  0.81605644  0.35467439     0.36400
C406        C  0.61611219  0.84771005  0.38125538    -0.05800
C407        C  0.66424448  0.84344973  0.38408817    -0.32800
C408        C  0.68703690  0.80666185  0.36248940     0.36300
H409        H  0.59344879  0.75634156  0.31152297     0.16700
O410        O  0.54389500  0.82014815  0.35039374    -0.60300
H411        H  0.68400845  0.86780531  0.40442573     0.16700
O412        O  0.73396029  0.80267422  0.36720125    -0.60400
H413        H  0.73854354  0.78636847  0.39685859     0.43700
H414        H  0.53072025  0.79845417  0.37342449     0.43600
C415        C  0.35900035  0.77583681  0.33534610    -0.05400
C416        C  0.35669767  0.77907451  0.38347124    -0.32900
C417        C  0.37971508  0.81457112  0.40684748     0.36400
C418        C  0.40490112  0.84806214  0.38210096    -0.05800
C419        C  0.40551081  0.84623079  0.33394886    -0.32800
C420        C  0.38305092  0.81029897  0.31054862     0.36300
H421        H  0.33788492  0.75336459  0.40322977     0.16700
O422        O  0.37601957  0.81731230  0.45376162    -0.60300
H423        H  0.42427950  0.87220101  0.31447683     0.16700
O424        O  0.38473054  0.80930219  0.26349576    -0.60400
H425        H  0.35760057  0.82744820  0.25326247     0.43700
H426        H  0.39739170  0.79349510  0.46589867     0.43600
C427        C  0.61567578  0.39532790  0.14857544    -0.05400
C428        C  0.66399943  0.39686428  0.15111684    -0.32900
C429        C  0.68731576  0.37590107  0.18778883     0.36400
C430        C  0.66225171  0.35176615  0.22192072    -0.05800
C431        C  0.61388169  0.34973581  0.21875797    -0.32800
C432        C  0.59057678  0.37209252  0.18305045     0.36300
H433        H  0.68365511  0.41519387  0.12506861     0.16700
O434        O  0.73449171  0.37929558  0.18990011    -0.60300
H435        H  0.59384947  0.33172723  0.24473183     0.16700
O436        O  0.54329140  0.36994621  0.18141931    -0.60400
H437        H  0.53245027  0.39509484  0.20189763     0.43700
H438        H  0.74622638  0.35405614  0.17005416     0.43600
C439        C  0.61035445  0.60368689  0.14994657    -0.05400
C440        C  0.61516476  0.65202303  0.14990827    -0.32900
C441        C  0.63653223  0.67473735  0.18670856     0.36400
C442        C  0.65534434  0.64886235  0.22333301    -0.05800
C443        C  0.65065901  0.60050352  0.22315023    -0.32800
C444        C  0.62753762  0.57800481  0.18740137     0.36300
H445        H  0.60160104  0.67229564  0.12165522     0.16700
O446        O  0.64027848  0.72208561  0.18571595    -0.60300
H447        H  0.66426787  0.58006277  0.25125855     0.16700
O448        O  0.62348987  0.53066030  0.18850921    -0.60400
H449        H  0.59677000  0.52424808  0.20893035     0.43700
H450        H  0.61024890  0.73365140  0.19736182     0.43600
C451        C  0.40855438  0.60747152  0.14425646    -0.05400
C452        C  0.36225190  0.59754698  0.15376201    -0.32900
C453        C  0.33887769  0.62051782  0.18907623     0.36400
C454        C  0.36182025  0.65463390  0.21547248    -0.05800
C455        C  0.40798193  0.66558662  0.20452004    -0.32800
C456        C  0.43140635  0.64201527  0.16945671     0.36300
H457        H  0.34423697  0.57139495  0.13400529     0.16700
O458        O  0.29326322  0.61004514  0.19655749    -0.60300
H459        H  0.42637843  0.69186243  0.22370358     0.16700
O460        O  0.47616040  0.65382913  0.15919426    -0.60400
H461        H  0.49540683  0.63550221  0.18065927     0.43700
H462        H  0.29342041  0.58140227  0.21542493     0.43600
C463        C  0.40162173  0.39259409  0.14351969    -0.05400
C464        C  0.38723355  0.41839235  0.18169345    -0.32900
C465        C  0.36356315  0.39718747  0.21794883     0.36400
C466        C  0.35478174  0.34924605  0.21690018    -0.05800
C467        C  0.36897459  0.32331414  0.17875319    -0.32800
C468        C  0.39176422  0.34476386  0.14189073     0.36300
H469        H  0.39447921  0.45518266  0.18350949     0.16700
O470        O  0.35178655  0.42306066  0.25562610    -0.60300
H471        H  0.36258963  0.28634505  0.17769933     0.16700
O472        O  0.40535551  0.31845526  0.10512265    -0.60400
H473        H  0.43777853  0.30974070  0.11165476     0.43700
H474        H  0.32234880  0.43837166  0.24733518     0.43600
C475        C  0.66325141  0.64893944  0.76058998    -0.05400
C476        C  0.61556483  0.65435462  0.76782522    -0.32900
C477        C  0.59313677  0.63180419  0.80403424     0.36400
C478        C  0.61844073  0.60434576  0.83482782    -0.05800
C479        C  0.66618243  0.59939094  0.82854788    -0.32800
C480        C  0.68856964  0.62080409  0.79127637     0.36300
H481        H  0.59512262  0.67532303  0.74467619     0.16700
O482        O  0.54650394  0.63775263  0.80980087    -0.60300
H483        H  0.68591176  0.57797245  0.85192280     0.16700
O484        O  0.73520492  0.61474301  0.78583450    -0.60400
H485        H  0.73845800  0.58522389  0.76879150     0.43700
H486        H  0.53182021  0.61499099  0.78893717     0.43600
C487        C  0.62129113  0.39433448  0.83496738    -0.05400
C488        C  0.63246464  0.41917455  0.79497636    -0.32900
C489        C  0.65465659  0.39763485  0.75815572     0.36400
C490        C  0.66483276  0.35004805  0.76015283    -0.05800
C491        C  0.65333794  0.32481626  0.79982229    -0.32800
C492        C  0.63234000  0.34676087  0.83740816     0.36300
H493        H  0.62429228  0.45568301  0.79234549     0.16700
O494        O  0.66444088  0.42300584  0.71944333    -0.60300
H495        H  0.66117437  0.28819793  0.80185391     0.16700
O496        O  0.62225368  0.32125793  0.87595764    -0.60400
H497        H  0.58968160  0.31136282  0.87217800     0.43700
H498        H  0.69428319  0.43855506  0.72592049     0.43600
C499        C  0.36557727  0.35087571  0.75683593    -0.05400
C500        C  0.41297700  0.36018899  0.75422424    -0.32900
C501        C  0.43580195  0.38167786  0.79059980     0.36400
C502        C  0.41133689  0.39320878  0.83088800    -0.05800
C503        C  0.36411084  0.38244828  0.83404996    -0.32800
C504        C  0.34102676  0.36209179  0.79699372     0.36300
H505        H  0.43215434  0.35180227  0.72335753     0.16700
O506        O  0.48201148  0.39135025  0.78631733    -0.60300
H507        H  0.34483219  0.39089513  0.86482950     0.16700
O508        O  0.29486722  0.35206631  0.80076869    -0.60400
H509        H  0.27877812  0.38122302  0.79266246     0.43700
H510        H  0.49804681  0.36469369  0.80064353     0.43600
C511        C  0.36203500  0.64585936  0.75884312    -0.05400
C512        C  0.37331709  0.66985442  0.79905851    -0.32900
C513        C  0.39382361  0.64684008  0.83608471     0.36400
C514        C  0.40506308  0.59948713  0.83246037    -0.05800
C515        C  0.39378672  0.57552768  0.79209985    -0.32800
C516        C  0.37194494  0.59826292  0.75564858     0.36300
H517        H  0.36574393  0.70646224  0.80194579     0.16700
O518        O  0.40459243  0.67143652  0.87486493    -0.60300
H519        H  0.40179303  0.53903915  0.78887651     0.16700
O520        O  0.36131436  0.57392210  0.71666277    -0.60400
H521        H  0.38954766  0.57534936  0.69738568     0.43700
H522        H  0.37601159  0.67116669  0.89368779     0.43600
loop_ 
_geom_bond_atom_site_label_1 
_geom_bond_atom_site_label_2 
_geom_bond_distance 
_geom_bond_site_symmetry_2 
_ccdc_geom_bond_type 
O1          Zr13   2.444       .  S
O1            C3   1.288       .  A
O2          Zr39   2.409       .  S
O2            C3   1.284       .  A
C3          C502   1.474       .  S
O4          Zr16   2.443   1_554  S
O4            C6   1.287       .  A
O5          Zr40   2.423       .  S
O5            C6   1.285       .  A
C6          C451   1.469       .  S
O7          Zr16   2.437       .  S
O7            C9   1.287       .  A
O8          Zr39   2.425       .  S
O8            C9   1.287       .  A
C9          C514   1.477       .  S
O10         Zr13   2.437   1_554  S
O10          C12   1.287       .  A
O11         Zr40   2.422       .  S
O11          C12   1.287       .  A
C12         C463   1.475       .  S
Zr13         O14   2.434       .  S
Zr13         O15   2.436       .  S
Zr13         O19   2.372       .  S
Zr13         O20   2.376   1_556  S
Zr13         O43   2.375   1_556  S
Zr13         O45   2.369       .  S
O14          H57   0.990       .  S
O15          H56   0.990       .  S
O15          H60   0.990       .  S
Zr16         O17   2.435       .  S
Zr16         O18   2.433       .  S
Zr16         O20   2.363   1_556  S
Zr16         O19   2.368       .  S
Zr16         O44   2.377       .  S
Zr16         O46   2.372   1_556  S
O17          H58   0.990       .  S
O17          H61   0.990       .  S
O18          H51   0.990       .  S
O19         Zr39   2.376       .  S
O20         Zr40   2.379       .  S
O20          H47   0.966       .  S
O21         Zr33   2.449   1_554  S
O21          C23   1.289       .  A
O22         Zr40   2.418       .  S
O22          C23   1.285       .  A
C23         C427   1.473       .  S
O24         Zr36   2.457       .  S
O24          C26   1.290       .  A
O25         Zr39   2.412       .  S
O25          C26   1.284       .  A
C26         C478   1.472       .  S
O27         Zr36   2.459   1_554  S
O27          C29   1.291       .  A
O28         Zr40   2.407       .  S
O28          C29   1.284       .  A
C29         C439   1.477       .  S
O30         Zr33   2.445       .  S
O30          C32   1.288       .  A
O31         Zr39   2.426       .  S
O31          C32   1.288       .  A
C32         C487   1.481       .  S
Zr33         O34   2.435       .  S
Zr33         O35   2.433       .  S
Zr33         O41   2.373   1_556  S
Zr33         O42   2.376       .  S
Zr33         O45   2.374       .  S
Zr33         O43   2.375   1_556  S
O34          H54   0.990   1_556  S
O34          H59   0.990       .  S
O35          H55   0.990   1_556  S
Zr36         O37   2.434       .  S
Zr36         O38   2.437       .  S
Zr36         O42   2.376       .  S
Zr36         O41   2.375   1_556  S
Zr36         O46   2.374   1_556  S
Zr36         O44   2.372       .  S
O37          H53   0.990   1_556  S
O38          H52   0.990   1_556  S
O38          H62   0.990       .  S
Zr39         O42   2.379       .  S
Zr39         O44   2.384       .  S
Zr39         O45   2.380       .  S
Zr40         O41   2.385       .  S
Zr40         O43   2.379       .  S
Zr40         O46   2.380       .  S
O41          H49   0.965       .  S
O44          H48   0.966       .  S
O45          H50   0.965       .  S
O63         Zr75   2.441   1_565  S
O63          C65   1.287       .  A
O64        Zr101   2.429       .  S
O64          C65   1.287       .  A
C65         C418   1.474       .  S
O66         Zr78   2.440       .  S
O66          C68   1.287       .  A
O67        Zr102   2.404       .  S
O67          C68   1.283       .  A
C68         C370   1.466       .  S
O69         Zr78   2.434   1_565  S
O69          C71   1.286       .  A
O70        Zr101   2.428       .  S
O70          C71   1.287       .  A
C71         C406   1.470       .  S
O72         Zr75   2.442       .  S
O72          C74   1.288       .  A
O73        Zr102   2.414       .  S
O73          C74   1.285       .  A
C74         C355   1.473       .  S
Zr75         O76   2.433       .  S
Zr75         O77   2.435       .  S
Zr75         O81   2.370   1_545  S
Zr75         O82   2.368       .  S
Zr75        O105   2.375       .  S
Zr75        O107   2.374   1_545  S
O76         H119   0.990   1_545  S
O77         H118   0.990   1_545  S
O77         H122   0.990   1_545  S
Zr78         O79   2.436       .  S
Zr78         O80   2.435       .  S
Zr78         O82   2.370       .  S
Zr78         O81   2.377   1_545  S
Zr78        O106   2.370   1_545  S
Zr78        O108   2.369       .  S
O79         H120   0.990       .  S
O79         H123   0.990       .  S
O80         H113   0.990   1_545  S
O81        Zr101   2.376       .  S
O82        Zr102   2.377       .  S
O82         H109   0.965       .  S
O83         Zr95   2.447       .  S
O83          C85   1.288       .  A
O84        Zr102   2.411       .  S
O84          C85   1.284       .  A
C85         C346   1.469       .  S
O86         Zr98   2.448       .  S
O86          C88   1.290       .  A
O87        Zr101   2.414       .  S
O87          C88   1.286       .  A
C88         C391   1.478       .  S
O89         Zr98   2.449   1_545  S
O89          C91   1.289       .  A
O90        Zr102   2.409       .  S
O90          C91   1.284       .  A
C91         C334   1.471       .  S
O92         Zr95   2.436   1_565  S
O92          C94   1.287       .  A
O93        Zr101   2.423       .  S
O93          C94   1.286       .  A
C94         C379   1.468       .  S
Zr95         O96   2.436   1_545  S
Zr95         O97   2.434   1_545  S
Zr95        O103   2.370       .  S
Zr95        O104   2.370   1_545  S
Zr95        O107   2.373   1_545  S
Zr95        O105   2.372       .  S
O96         H116   0.990   1_565  S
O96         H121   0.990   1_565  S
O97         H117   0.990   1_565  S
Zr98         O99   2.434   1_565  S
Zr98        O100   2.435       .  S
Zr98        O104   2.368       .  S
Zr98        O103   2.372   1_565  S
Zr98        O108   2.373   1_565  S
Zr98        O106   2.374       .  S
O99         H115   0.990       .  S
O100        H114   0.990   1_565  S
O100        H124   0.990   1_565  S
Zr101       O104   2.378       .  S
Zr101       O106   2.385       .  S
Zr101       O107   2.379       .  S
Zr102       O103   2.379       .  S
Zr102       O105   2.373       .  S
Zr102       O108   2.379       .  S
O103        H111   0.966       .  S
O106        H110   0.965       .  S
O107        H112   0.965       .  S
O125       Zr137   2.463   1_655  S
O125        C127   1.292       .  A
O126       Zr163   2.406       .  S
O126        C127   1.283       .  A
C127        C319   1.478       .  S
O128       Zr140   2.440       .  S
O128        C130   1.288       .  A
O129       Zr164   2.425       .  S
O129        C130   1.287       .  A
C130        C271   1.480       .  S
O131       Zr140   2.435   1_655  S
O131        C133   1.286       .  A
O132       Zr163   2.419       .  S
O132        C133   1.286       .  A
C133        C307   1.470       .  S
O134       Zr137   2.446       .  S
O134        C136   1.289       .  A
O135       Zr164   2.422       .  S
O135        C136   1.287       .  A
C136        C262   1.478       .  S
Zr137       O138   2.434       .  S
Zr137       O139   2.436       .  S
Zr137       O143   2.374   1_455  S
Zr137       O144   2.379       .  S
Zr137       O167   2.375       .  S
Zr137       O169   2.367   1_455  S
O138        H181   0.990   1_455  S
O139        H180   0.990   1_455  S
O139        H184   0.990       .  S
Zr140       O141   2.433       .  S
Zr140       O142   2.434       .  S
Zr140       O144   2.361       .  S
Zr140       O143   2.369   1_455  S
Zr140       O168   2.374   1_455  S
Zr140       O170   2.378       .  S
O141        H182   0.990       .  S
O141        H185   0.990   1_455  S
O142        H175   0.990   1_455  S
O143       Zr163   2.377       .  S
O144       Zr164   2.383       .  S
O144        H171   0.965       .  S
O145       Zr157   2.448       .  S
O145        C147   1.289       .  A
O146       Zr164   2.418       .  S
O146        C147   1.286       .  A
C147        C250   1.484       .  S
O148       Zr160   2.449   1_655  S
O148        C150   1.289       .  A
O149       Zr163   2.411       .  S
O149        C150   1.284       .  A
C150        C298   1.471       .  S
O151       Zr160   2.440       .  S
O151        C153   1.287       .  A
O152       Zr164   2.426       .  S
O152        C153   1.287       .  A
C153        C238   1.472       .  S
O154       Zr157   2.441   1_655  S
O154        C156   1.287       .  A
O155       Zr163   2.409       .  S
O155        C156   1.284       .  A
C156        C283   1.467       .  S
Zr157       O158   2.435       .  S
Zr157       O159   2.434       .  S
Zr157       O165   2.367       .  S
Zr157       O166   2.380   1_455  S
Zr157       O169   2.374   1_455  S
Zr157       O167   2.371       .  S
O158        H178   0.990       .  S
O158        H183   0.990   1_455  S
O159        H179   0.990       .  S
Zr160       O161   2.434       .  S
Zr160       O162   2.435       .  S
Zr160       O166   2.376   1_455  S
Zr160       O165   2.377       .  S
Zr160       O170   2.373       .  S
Zr160       O168   2.361   1_455  S
O161        H177   0.990       .  S
O162        H176   0.990       .  S
O162        H186   0.990       .  S
Zr163       O166   2.378       .  S
Zr163       O168   2.377       .  S
Zr163       O169   2.384       .  S
Zr164       O165   2.381       .  S
Zr164       O167   2.380       .  S
Zr164       O170   2.379       .  S
O165        H173   0.966       .  S
O168        H172   0.966       .  S
O169        H174   0.966       .  S
C187        C310   1.472       .  S
C187        N188   1.359       .  A
C187        N192   1.354       .  A
N188        C189   1.360       .  A
C189        C430   1.481       .  S
C189        N190   1.359       .  A
N190        C191   1.358       .  A
C191        C367   1.471       .  S
C191        N192   1.353       .  A
C193        C322   1.481       .  S
C193        N194   1.359       .  A
C193        N198   1.361       .  A
N194        C195   1.359       .  A
C195        C403   1.481       .  S
C195        N196   1.358       .  A
N196        C197   1.356       .  A
C197        C442   1.480       .  S
C197        N198   1.360       .  A
C199        C490   1.475       .  S
C199        N200   1.359       .  A
C199        N204   1.357       .  A
N200        C201   1.361       .  A
C201        C331   1.475       .  S
C201        N202   1.358       .  A
N202        C203   1.356       .  A
C203        C295   1.479       .  S
C203        N204   1.357       .  A
C205        C415   1.482       .  S
C205        N206   1.362       .  A
C205        N210   1.359       .  A
N206        C207   1.362       .  A
C207        C454   1.490       .  S
C207        N208   1.358       .  A
N208        C209   1.356       .  A
C209        C259   1.473       .  S
C209        N210   1.356       .  A
C211        C511   1.472       .  S
C211        N212   1.359       .  A
C211        N216   1.356       .  A
N212        C213   1.360       .  A
C213        C382   1.482       .  S
C213        N214   1.359       .  A
N214        C215   1.355       .  A
C215        C247   1.468       .  S
C215        N216   1.356       .  A
C217        C499   1.468       .  S
C217        N218   1.357       .  A
C217        N222   1.358       .  A
N218        C219   1.357       .  A
C219        C343   1.475       .  S
C219        N220   1.357       .  A
N220        C221   1.358       .  A
C221        C235   1.477       .  S
C221        N222   1.358       .  A
C223        C475   1.485       .  S
C223        N224   1.360       .  A
C223        N228   1.360       .  A
N224        C225   1.356       .  A
C225        C394   1.474       .  S
C225        N226   1.356       .  A
N226        C227   1.358       .  A
C227        C286   1.479       .  S
C227        N228   1.360       .  A
C229        C358   1.476       .  S
C229        N230   1.359       .  A
C229        N234   1.358       .  A
N230        C231   1.358       .  A
C231        C466   1.472       .  S
C231        N232   1.359       .  A
N232        C233   1.357       .  A
C233        C274   1.474       .  S
C233        N234   1.356       .  A
C235        C236   1.404       .  A
C235        C240   1.411       .  A
C236        C237   1.398       .  A
C236        H241   1.084       .  S
C237        C238   1.405       .  A
C237        O242   1.371       .  S
C238        C239   1.403       .  A
C239        C240   1.400       .  A
C239        H243   1.082       .  S
C240        O244   1.372       .  S
O242        H246   0.992       .  S
O244        H245   0.992       .  S
C247        C248   1.398       .  A
C247        C252   1.406       .  A
C248        C249   1.396       .  A
C248        H253   1.084       .  S
C249        C250   1.412       .  A
C249        O254   1.371       .  S
C250        C251   1.408       .  A
C251        C252   1.403       .  A
C251        H255   1.083       .  S
C252        O256   1.372       .  S
O254        H258   0.992       .  S
O256        H257   0.992       .  S
C259        C260   1.402       .  A
C259        C264   1.407       .  A
C260        C261   1.398       .  A
C260        H265   1.084       .  S
C261        C262   1.410       .  A
C261        O266   1.372       .  S
C262        C263   1.405       .  A
C263        C264   1.402       .  A
C263        H267   1.084       .  S
C264        O268   1.372       .  S
O266        H270   0.992       .  S
O268        H269   0.992       .  S
C271        C272   1.406       .  A
C271        C276   1.410       .  A
C272        C273   1.402       .  A
C272        H277   1.084       .  S
C273        C274   1.408       .  A
C273        O278   1.372       .  S
C274        C275   1.402       .  A
C275        C276   1.399       .  A
C275        H279   1.084       .  S
C276        O280   1.372       .  S
O278        H282   0.992       .  S
O280        H281   0.992       .  S
C283        C284   1.400       .  A
C283        C288   1.406       .  A
C284        C285   1.395       .  A
C284        H289   1.084       .  S
C285        C286   1.411       .  A
C285        O290   1.371       .  S
C286        C287   1.407       .  A
C287        C288   1.401       .  A
C287        H291   1.083       .  S
C288        O292   1.372       .  S
O290        H294   0.992       .  S
O292        H293   0.992       .  S
C295        C296   1.405       .  A
C295        C300   1.412       .  A
C296        C297   1.398       .  A
C296        H301   1.083       .  S
C297        C298   1.406       .  A
C297        O302   1.372       .  S
C298        C299   1.402       .  A
C299        C300   1.401       .  A
C299        H303   1.084       .  S
C300        O304   1.372       .  S
O302        H306   0.992       .  S
O304        H305   0.992       .  S
C307        C308   1.404       .  A
C307        C312   1.407       .  A
C308        C309   1.399       .  A
C308        H313   1.084       .  S
C309        C310   1.406       .  A
C309        O314   1.371       .  S
C310        C311   1.405       .  A
C311        C312   1.397       .  A
C311        H315   1.084       .  S
C312        O316   1.372       .  S
O314        H318   0.992       .  S
O316        H317   0.992       .  S
C319        C320   1.405       .  A
C319        C324   1.407       .  A
C320        C321   1.401       .  A
C320        H325   1.084       .  S
C321        C322   1.410       .  A
C321        O326   1.372       .  S
C322        C323   1.405       .  A
C323        C324   1.401       .  A
C323        H327   1.084       .  S
C324        O328   1.371       .  S
O326        H330   0.992       .  S
O328        H329   0.992       .  S
C331        C332   1.405       .  A
C331        C336   1.408       .  A
C332        C333   1.397       .  A
C332        H337   1.084       .  S
C333        C334   1.409       .  A
C333        O338   1.373       .  S
C334        C335   1.403       .  A
C335        C336   1.401       .  A
C335        H339   1.084       .  S
C336        O340   1.371       .  S
O338        H342   0.992       .  S
O340        H341   0.992       .  S
C343        C344   1.405       .  A
C343        C348   1.410       .  A
C344        C345   1.400       .  A
C344        H349   1.084       .  S
C345        C346   1.406       .  A
C345        O350   1.372       .  S
C346        C347   1.401       .  A
C347        C348   1.398       .  A
C347        H351   1.082       .  S
C348        O352   1.372       .  S
O350        H354   0.992       .  S
O352        H353   0.992       .  S
C355        C356   1.402       .  A
C355        C360   1.409       .  A
C356        C357   1.397       .  A
C356        H361   1.082       .  S
C357        C358   1.410       .  A
C357        O362   1.372       .  S
C358        C359   1.404       .  A
C359        C360   1.400       .  A
C359        H363   1.084       .  S
C360        O364   1.372       .  S
O362        H366   0.992       .  S
O364        H365   0.992       .  S
C367        C368   1.402       .  A
C367        C372   1.410       .  A
C368        C369   1.395       .  A
C368        H373   1.084       .  S
C369        C370   1.408       .  A
C369        O374   1.373       .  S
C370        C371   1.401       .  A
C371        C372   1.398       .  A
C371        H375   1.084       .  S
C372        O376   1.372       .  S
O374        H378   0.992       .  S
O376        H377   0.992       .  S
C379        C380   1.401       .  A
C379        C384   1.404       .  A
C380        C381   1.401       .  A
C380        H385   1.084       .  S
C381        C382   1.414       .  A
C381        O386   1.372       .  S
C382        C383   1.406       .  A
C383        C384   1.398       .  A
C383        H387   1.084       .  S
C384        O388   1.372       .  S
O386        H390   0.992       .  S
O388        H389   0.992       .  S
C391        C392   1.404       .  A
C391        C396   1.410       .  A
C392        C393   1.398       .  A
C392        H397   1.084       .  S
C393        C394   1.407       .  A
C393        O398   1.372       .  S
C394        C395   1.403       .  A
C395        C396   1.402       .  A
C395        H399   1.084       .  S
C396        O400   1.372       .  S
O398        H402   0.992       .  S
O400        H401   0.992       .  S
C403        C404   1.407       .  A
C403        C408   1.412       .  A
C404        C405   1.397       .  A
C404        H409   1.083       .  S
C405        C406   1.404       .  A
C405        O410   1.372       .  S
C406        C407   1.403       .  A
C407        C408   1.402       .  A
C407        H411   1.084       .  S
C408        O412   1.372       .  S
O410        H414   0.992       .  S
O412        H413   0.992       .  S
C415        C416   1.406       .  A
C415        C420   1.410       .  A
C416        C417   1.400       .  A
C416        H421   1.084       .  S
C417        C418   1.406       .  A
C417        O422   1.373       .  S
C418        C419   1.403       .  A
C419        C420   1.402       .  A
C419        H423   1.084       .  S
C420        O424   1.371       .  S
O422        H426   0.992       .  S
O424        H425   0.992       .  S
C427        C428   1.403       .  A
C427        C432   1.406       .  A
C428        C429   1.402       .  A
C428        H433   1.084       .  S
C429        C430   1.411       .  A
C429        O434   1.372       .  S
C430        C431   1.406       .  A
C431        C432   1.399       .  A
C431        H435   1.084       .  S
C432        O436   1.372       .  S
O434        H438   0.992       .  S
O436        H437   0.992       .  S
C439        C440   1.403       .  A
C439        C444   1.410       .  A
C440        C441   1.402       .  A
C440        H445   1.084       .  S
C441        C442   1.412       .  A
C441        O446   1.372       .  S
C442        C443   1.403       .  A
C443        C444   1.400       .  A
C443        H447   1.084       .  S
C444        O448   1.372       .  S
O446        H450   0.992       .  S
O448        H449   0.992       .  S
C451        C452   1.398       .  A
C451        C456   1.405       .  A
C452        C453   1.399       .  A
C452        H457   1.084       .  S
C453        C454   1.416       .  A
C453        O458   1.372       .  S
C454        C455   1.409       .  A
C455        C456   1.403       .  A
C455        H459   1.083       .  S
C456        O460   1.372       .  S
O458        H462   0.992       .  S
O460        H461   0.992       .  S
C463        C464   1.403       .  A
C463        C468   1.411       .  A
C464        C465   1.397       .  A
C464        H469   1.084       .  S
C465        C466   1.408       .  A
C465        O470   1.372       .  S
C466        C467   1.403       .  A
C467        C468   1.401       .  A
C467        H471   1.084       .  S
C468        O472   1.372       .  S
O470        H474   0.992       .  S
O472        H473   0.992       .  S
C475        C476   1.406       .  A
C475        C480   1.414       .  A
C476        C477   1.396       .  A
C476        H481   1.083       .  S
C477        C478   1.405       .  A
C477        O482   1.372       .  S
C478        C479   1.402       .  A
C479        C480   1.405       .  A
C479        H483   1.084       .  S
C480        O484   1.372       .  S
O482        H486   0.992       .  S
O484        H485   0.992       .  S
C487        C488   1.403       .  A
C487        C492   1.413       .  A
C488        C489   1.397       .  A
C488        H493   1.084       .  S
C489        C490   1.407       .  A
C489        O494   1.372       .  S
C490        C491   1.403       .  A
C491        C492   1.404       .  A
C491        H495   1.084       .  S
C492        O496   1.372       .  S
O494        H498   0.992       .  S
O496        H497   0.992       .  S
C499        C500   1.401       .  A
C499        C504   1.406       .  A
C500        C501   1.396       .  A
C500        H505   1.084       .  S
C501        C502   1.410       .  A
C501        O506   1.372       .  S
C502        C503   1.405       .  A
C503        C504   1.401       .  A
C503        H507   1.084       .  S
C504        O508   1.372       .  S
O506        H510   0.992       .  S
O508        H509   0.992       .  S
C511        C512   1.401       .  A
C511        C516   1.408       .  A
C512        C513   1.400       .  A
C512        H517   1.084       .  S
C513        C514   1.411       .  A
C513        O518   1.372       .  S
C514        C515   1.404       .  A
C515        C516   1.400       .  A
C515        H519   1.084       .  S
C516        O520   1.372       .  S
O518        H522   0.992       .  S
O520        H521   0.992       .  S
