geometry optimzed in LAMMPS
_audit_creation_date              2020-12-01 
_audit_creation_method            'lammps2cif' 
_symmetry_space_group_name_H-M    'P1' 
_symmetry_Int_Tables_number       1 
_symmetry_cell_setting            triclinic 
loop_ 
_symmetry_equiv_pos_as_xyz 
  x,y,z 
_cell_length_a                    67.36779968 
_cell_length_b                    67.43079445158362 
_cell_length_c                    67.5096535601963 
_cell_angle_alpha                 90.00502724192309 
_cell_angle_beta                  90.00219975845121 
_cell_angle_gamma                 90.14422526201369 
loop_ 
_atom_site_label 
_atom_site_type_symbol 
_atom_site_fract_x 
_atom_site_fract_y 
_atom_site_fract_z 
_atom_site_charge 
C1          C  0.67605915  0.69084560  0.84119734     0.03900
C2          C  0.68482220  0.67470730  0.83133234    -0.12200
C3          C  0.67606437  0.66635035  0.81435461     0.01400
C4          C  0.65841621  0.67466994  0.80704389    -0.10800
C5          C  0.64971257  0.69132334  0.81609281     0.03900
C6          C  0.65855587  0.69904794  0.83334903    -0.10200
H7          H  0.69886661  0.66906283  0.83647542     0.09500
H8          H  0.65140664  0.66798375  0.79431266     0.07000
H9          H  0.65190737  0.71166409  0.84061769     0.06900
C10         C  0.68504655  0.88308914  0.65156225     0.03900
C11         C  0.66635291  0.87709801  0.65881338    -0.12200
C12         C  0.65646207  0.86066032  0.65055798     0.01400
C13         C  0.66535632  0.85034211  0.63483803    -0.10800
C14         C  0.68397893  0.85592079  0.62736093     0.03900
C15         C  0.69372824  0.87219934  0.63607451    -0.10200
H16         H  0.65922734  0.88542467  0.67049818     0.09500
H17         H  0.65776638  0.83766783  0.62859682     0.07000
H18         H  0.70832144  0.87638494  0.63106052     0.06900
C19         C  0.87562346  0.69171250  0.65480493     0.03900
C20         C  0.86764026  0.70138714  0.63816169    -0.12200
C21         C  0.85024318  0.69456018  0.62895274     0.01400
C22         C  0.84037084  0.67799798  0.63693413    -0.10800
C23         C  0.84792906  0.66799574  0.65356955     0.03900
C24         C  0.86566791  0.67490968  0.66221048    -0.10200
H25         H  0.87498660  0.71423527  0.63207057     0.09500
H26         H  0.82657989  0.67309185  0.63037118     0.07000
H27         H  0.87199481  0.66696757  0.67453658     0.06900
C28         C  0.85411433  0.85290574  0.84669002     0.03900
C29         C  0.87106712  0.84449445  0.83790276    -0.12200
C30         C  0.88101563  0.85385189  0.82213497     0.01400
C31         C  0.87369068  0.87206783  0.81503810    -0.10800
C32         C  0.85649328  0.88067574  0.82320183     0.03900
C33         C  0.84702171  0.87099716  0.83909229    -0.10200
H34         H  0.87647870  0.83038615  0.84302671     0.09500
H35         H  0.88156252  0.87969254  0.80336257     0.07000
H36         H  0.83380178  0.87747708  0.84536274     0.06900
O37         O  0.79739076  0.76257101  0.96239588    -0.72200
O38         O  0.76526155  0.73492403  0.00447024    -0.73100
O39         O  0.76575454  0.73451529  0.96216736    -0.61800
O40         O  0.79667117  0.76280508  0.00477895    -0.70200
O41         O  0.77457552  0.78715559  0.00433849    -0.69700
O42         O  0.74418560  0.75932774  0.96147300    -0.61000
O43         O  0.74313781  0.75924109  0.00359429    -0.73500
O44         O  0.77555818  0.78715670  0.96221099    -0.72300
Cu45       Cu  0.78205233  0.74783093  0.98344368     1.04600
Cu46       Cu  0.75862896  0.77406226  0.98287658     1.04300
C47         C  0.79142317  0.77921047  0.95558561     0.94000
C48         C  0.74925430  0.74284692  0.01081172     0.93200
C49         C  0.75017988  0.74258522  0.95499018     0.85300
C50         C  0.79023262  0.77928911  0.01153130     0.91600
O51         O  0.99896873  0.74614860  0.73072841    -0.72200
O52         O  0.04148541  0.77462826  0.76151070    -0.73100
O53         O  0.99919854  0.77625550  0.76005692    -0.61800
O54         O  0.04133577  0.74441618  0.73241729    -0.70200
O55         O  0.04290132  0.76685840  0.70842168    -0.69700
O56         O  0.00097239  0.79904620  0.73641368    -0.61000
O57         O  0.04355344  0.79708130  0.73755121    -0.73500
O58         O  0.00089787  0.76908706  0.70721860    -0.72300
Cu59       Cu  0.02018478  0.75956900  0.74701105     1.04600
Cu60       Cu  0.02215709  0.78384836  0.72162127     1.04300
C61         C  0.99310112  0.75330707  0.71419812     0.94000
C62         C  0.04951368  0.79013476  0.75411295     0.93200
C63         C  0.99317253  0.79249833  0.75241439     0.85300
C64         C  0.04879622  0.75058573  0.71613614     0.91600
O65         O  0.76970975  0.99974571  0.70928210    -0.72200
O66         O  0.80138013  0.04171769  0.73850438    -0.73100
O67         O  0.80076252  0.99935119  0.73772209    -0.61800
O68         O  0.77105351  0.04198449  0.70951902    -0.70200
O69         O  0.74824268  0.04261222  0.73321088    -0.69700
O70         O  0.77871357  0.99951234  0.76213679    -0.61000
O71         O  0.77876441  0.04155328  0.76241590    -0.73500
O72         O  0.74770748  0.00029462  0.73373673    -0.72300
Cu73       Cu  0.78651440  0.02070112  0.72291901     1.04600
Cu74       Cu  0.76255543  0.02101172  0.74868984     1.04300
C75         C  0.75370458  0.99328694  0.71725487     0.94000
C76         C  0.79488734  0.04822655  0.75510309     0.93200
C77         C  0.79454616  0.99260033  0.75425544     0.85300
C78         C  0.75513159  0.04915240  0.71676186     0.91600
C79         C  0.68862335  0.67824096  0.12608024     0.03900
C80         C  0.69494276  0.65997462  0.13391140    -0.12200
C81         C  0.68627713  0.65191821  0.15108640     0.01400
C82         C  0.67038236  0.66210874  0.15991705    -0.10800
C83         C  0.66350067  0.68024577  0.15229260     0.03900
C84         C  0.67296957  0.68830860  0.13552406    -0.10200
H85         H  0.70659037  0.65195591  0.12645708     0.09500
H86         H  0.66337831  0.65596075  0.17293571     0.07000
H87         H  0.66852216  0.70270216  0.13016954     0.06900
C88         C  0.68492116  0.15856403  0.65135240     0.03900
C89         C  0.66873188  0.16877250  0.65957221    -0.12200
C90         C  0.66082401  0.18585494  0.65051962     0.01400
C91         C  0.66990981  0.19300066  0.63313485    -0.10800
C92         C  0.68624112  0.18319053  0.62461664     0.03900
C93         C  0.69316205  0.16570475  0.63359347    -0.10200
H94         H  0.66264815  0.16355615  0.67336244     0.09500
H95         H  0.66447065  0.20646288  0.62647602     0.07000
H96         H  0.70515124  0.15772396  0.62670156     0.06900
C97         C  0.15411799  0.68183537  0.64295137     0.03900
C98         C  0.16249826  0.66451414  0.65124851    -0.12200
C99         C  0.17911047  0.65530943  0.64246524     0.01400
C100        C  0.18700864  0.66364353  0.62510684    -0.10800
C101        C  0.17905102  0.68077409  0.61657228     0.03900
C102        C  0.16256342  0.68971347  0.62553804    -0.10200
H103        H  0.15611992  0.65827972  0.66450821     0.09500
H104        H  0.19980937  0.65696944  0.61824125     0.07000
H105        H  0.15636920  0.70290987  0.61892930     0.06900
C106        C  0.87118858  0.68758754  0.31598451     0.03900
C107        C  0.86247622  0.67024476  0.30817829    -0.12200
C108        C  0.84599761  0.66135862  0.31735835     0.01400
C109        C  0.83794829  0.67024429  0.33431186    -0.10800
C110        C  0.84591022  0.68776450  0.34229210     0.03900
C111        C  0.86270001  0.69618552  0.33304916    -0.10200
H112        H  0.86811534  0.66387601  0.29465940     0.09500
H113        H  0.82533444  0.66333189  0.34136929     0.07000
H114        H  0.86938964  0.70935911  0.33922542     0.06900
O115        O  0.99429402  0.75657430  0.25152067    -0.72200
O116        O  0.03586953  0.78528063  0.21955274    -0.73100
O117        O  0.99354715  0.78585389  0.22154671    -0.61800
O118        O  0.03677078  0.75610770  0.24963512    -0.70200
O119        O  0.03582746  0.73250833  0.22674081    -0.69700
O120        O  0.99196623  0.76192131  0.19903157    -0.61000
O121        O  0.03436614  0.76178977  0.19658408    -0.73500
O122        O  0.99355006  0.73261677  0.22899329    -0.72300
Cu123      Cu  0.01518130  0.77176137  0.23636872     1.04600
Cu124      Cu  0.01388254  0.74639027  0.21203645     1.04300
C125        C  0.98716415  0.74018853  0.24512053     0.94000
C126        C  0.04180281  0.77797537  0.20311273     0.93200
C127        C  0.98568586  0.77837347  0.20602472     0.85300
C128        C  0.04335844  0.73984355  0.24249999     0.91600
C129        C  0.84487635  0.84931912  0.12678915     0.03900
C130        C  0.83605095  0.86580901  0.13597489    -0.12200
C131        C  0.84469214  0.87487557  0.15266365     0.01400
C132        C  0.86227137  0.86681497  0.16053583    -0.10800
C133        C  0.87132828  0.85014419  0.15185459     0.03900
C134        C  0.86272813  0.84197425  0.13466973    -0.10200
H135        H  0.82224077  0.87154965  0.13023316     0.09500
H136        H  0.86901642  0.87363921  0.17335195     0.07000
H137        H  0.87015879  0.83006210  0.12715818     0.06900
C138        C  0.67909045  0.88464694  0.32548342     0.03900
C139        C  0.66405573  0.87524808  0.31461624    -0.12200
C140        C  0.65483844  0.85782388  0.32150474     0.01400
C141        C  0.66162151  0.84940681  0.33942015    -0.10800
C142        C  0.67699195  0.85837891  0.35043270     0.03900
C143        C  0.68505840  0.87635658  0.34352610    -0.10200
H144        H  0.65985591  0.88135385  0.30046437     0.09500
H145        H  0.65517439  0.83578146  0.34477474     0.07000
H146        H  0.69611035  0.88410831  0.35211045     0.06900
O147        O  0.79217414  0.99609574  0.23725735    -0.72200
O148        O  0.76356432  0.04194720  0.26237767    -0.73100
O149        O  0.76073152  0.99996436  0.26450876    -0.61800
O150        O  0.79524598  0.03824917  0.23496374    -0.70200
O151        O  0.77406615  0.03791071  0.20977135    -0.69700
O152        O  0.73876267  0.00060319  0.24000253    -0.61000
O153        O  0.74245988  0.04259052  0.23714560    -0.73500
O154        O  0.77044905  0.99610025  0.21253818    -0.72300
Cu155      Cu  0.77868555  0.01907607  0.25063062     1.04600
Cu156      Cu  0.75566717  0.01930659  0.22399660     1.04300
C157        C  0.78569912  0.98874321  0.22104531     0.94000
C158        C  0.74857502  0.04958229  0.25365562     0.93200
C159        C  0.74437332  0.99415676  0.25689099     0.85300
C160        C  0.79011619  0.04414422  0.21773364     0.91600
C161        C  0.34824998  0.88678366  0.64304885     0.03900
C162        C  0.36649516  0.87950163  0.65013169    -0.12200
C163        C  0.37493525  0.86216249  0.64226501     0.01400
C164        C  0.36517142  0.85242208  0.62666629    -0.10800
C165        C  0.34705141  0.85943131  0.61916912     0.03900
C166        C  0.33870707  0.87658365  0.62753566    -0.10200
H167        H  0.37442089  0.88754863  0.66147817     0.09500
H168        H  0.37179332  0.83933792  0.62028536     0.07000
H169        H  0.32455022  0.88181587  0.62213175     0.06900
O170        O  0.24392466  0.00710138  0.73530605    -0.72200
O171        O  0.27502639  0.04914143  0.70719878    -0.73100
O172        O  0.27438367  0.00690348  0.70619292    -0.61800
O173        O  0.24505855  0.04937950  0.73651689    -0.70200
O174        O  0.26791805  0.04776297  0.76013559    -0.69700
O175        O  0.29705898  0.00599832  0.73002394    -0.61000
O176        O  0.29800307  0.04816847  0.73074076    -0.73500
O177        O  0.26676706  0.00569070  0.75895262    -0.72300
Cu178      Cu  0.25878988  0.02815913  0.72047077     1.04600
Cu179      Cu  0.28323393  0.02688488  0.74577183     1.04300
C180        C  0.25043040  0.99962474  0.75141452     0.94000
C181        C  0.29130555  0.05543994  0.71457640     0.93200
C182        C  0.29031251  0.99966331  0.71353132     0.85300
C183        C  0.25205260  0.05530450  0.75312288     0.91600
C184        C  0.18880657  0.85675712  0.83914501     0.03900
C185        C  0.17308064  0.84803551  0.82867335    -0.12200
C186        C  0.16494482  0.85713662  0.81183368     0.01400
C187        C  0.17338648  0.87497598  0.80500446    -0.10800
C188        C  0.18938810  0.88400501  0.81507124     0.03900
C189        C  0.19666416  0.87483932  0.83234574    -0.10200
H190        H  0.16746426  0.83380560  0.83343613     0.09500
H191        H  0.16736691  0.88172290  0.79184213     0.07000
H192        H  0.20841403  0.88187085  0.84066129     0.06900
C193        C  0.34844505  0.68406864  0.83532625     0.03900
C194        C  0.34181133  0.66630791  0.82673311    -0.12200
C195        C  0.35001926  0.65915074  0.80893959     0.01400
C196        C  0.36571320  0.66987552  0.80019633    -0.10800
C197        C  0.37271254  0.68772461  0.80850456     0.03900
C198        C  0.36365683  0.69474375  0.82589247    -0.10200
H199        H  0.33022105  0.65813773  0.83409959     0.09500
H200        H  0.37243238  0.66426978  0.78686056     0.07000
H201        H  0.36826560  0.70880072  0.83196002     0.06900
O202        O  0.24510668  0.77407779  0.99835807    -0.72200
O203        O  0.27426430  0.74395695  0.95615619    -0.73100
O204        O  0.27304635  0.74229308  0.99805588    -0.61800
O205        O  0.24645129  0.77545910  0.95635597    -0.70200
O206        O  0.27149271  0.79689527  0.95751927    -0.69700
O207        O  0.29726875  0.76459404  0.99997843    -0.61000
O208        O  0.29912521  0.76553736  0.95824980    -0.73500
O209        O  0.26962809  0.79609836  0.99953669    -0.72300
Cu210      Cu  0.25881694  0.75818506  0.97720687     1.04600
Cu211      Cu  0.28521103  0.78154403  0.97889369     1.04300
C212        C  0.25276463  0.78987484  0.00556165     0.94000
C213        C  0.29135111  0.75005197  0.95059374     0.93200
C214        C  0.28943942  0.74823855  0.00552080     0.85300
C215        C  0.25496510  0.79123703  0.95015408     0.91600
C216        C  0.88266311  0.36464715  0.64896184     0.03900
C217        C  0.87309124  0.38024499  0.65884726    -0.12200
C218        C  0.85478656  0.38765316  0.65229278     0.01400
C219        C  0.84596167  0.37898445  0.63546638    -0.10800
C220        C  0.85530924  0.36353854  0.62497092     0.03900
C221        C  0.87384753  0.35667630  0.63181913    -0.10200
H222        H  0.87984179  0.38648257  0.67195665     0.09500
H223        H  0.83154503  0.38398502  0.63071563     0.07000
H224        H  0.88161318  0.34524264  0.62381848     0.06900
O225        O  0.04306392  0.30764578  0.72633015    -0.72200
O226        O  0.00216705  0.27936661  0.75892238    -0.73100
O227        O  0.04433116  0.28117182  0.75894175    -0.61800
O228        O  0.00116396  0.30583066  0.72633382    -0.70200
O229        O  0.00193558  0.28024899  0.70564468    -0.69700
O230        O  0.04492925  0.25553165  0.73831451    -0.61000
O231        O  0.00323531  0.25382292  0.73818452    -0.73500
O232        O  0.04420706  0.28191867  0.70582050    -0.72300
Cu233      Cu  0.02264016  0.29440839  0.74335769     1.04600
Cu234      Cu  0.02361168  0.26701685  0.72123523     1.04300
C235        C  0.05022066  0.29912265  0.71104475     0.94000
C236        C  0.99629604  0.26211663  0.75369613     0.93200
C237        C  0.05135620  0.26436887  0.75378207     0.85300
C238        C  0.99468922  0.29692172  0.71092154     0.91600
C239        C  0.86331902  0.18664617  0.84087307     0.03900
C240        C  0.88114454  0.19435194  0.83327922    -0.12200
C241        C  0.89006554  0.18628427  0.81634264     0.01400
C242        C  0.88147423  0.16947809  0.80756084    -0.10800
C243        C  0.86390458  0.16109227  0.81505925     0.03900
C244        C  0.85480899  0.16992937  0.83161795    -0.10200
H245        H  0.88816412  0.20672348  0.84063637     0.09500
H246        H  0.88836820  0.16302501  0.79463321     0.07000
H247        H  0.84076432  0.16419173  0.83677234     0.06900
C248        C  0.68493770  0.35255113  0.83900160     0.03900
C249        C  0.66790475  0.34501193  0.82961185    -0.12200
C250        C  0.65867607  0.35500491  0.81381919     0.01400
C251        C  0.66727067  0.37277912  0.80699229    -0.10800
C252        C  0.68449281  0.38069723  0.81587848     0.03900
C253        C  0.69301110  0.37050813  0.83200199    -0.10200
H254        H  0.66196769  0.33107539  0.83458498     0.09500
H255        H  0.66065925  0.38026805  0.79452747     0.07000
H256        H  0.70595380  0.37668643  0.83908451     0.06900
O257        O  0.74258555  0.26886575  0.99789861    -0.72200
O258        O  0.77344245  0.23961785  0.95687052    -0.73100
O259        O  0.77216021  0.23920883  0.99902264    -0.61800
O260        O  0.74413093  0.26977748  0.95586473    -0.70200
O261        O  0.76743484  0.29301778  0.95786232    -0.69700
O262        O  0.79629707  0.26169002  0.99887106    -0.61000
O263        O  0.79660455  0.26310387  0.95697495    -0.73500
O264        O  0.76662176  0.29137584  0.99983615    -0.72300
Cu265      Cu  0.75724839  0.25354112  0.97736546     1.04600
Cu266      Cu  0.78254085  0.27810952  0.97844072     1.04300
C267        C  0.74984566  0.28456471  0.00556955     0.94000
C268        C  0.78967709  0.24678733  0.95023014     0.93200
C269        C  0.78874321  0.24570462  0.00564278     0.85300
C270        C  0.75150365  0.28631438  0.95011381     0.91600
C271        C  0.69119658  0.35142816  0.11968901     0.03900
C272        C  0.69894449  0.36874778  0.12830285    -0.12200
C273        C  0.69098459  0.37664635  0.14579926     0.01400
C274        C  0.67451440  0.36714721  0.15436857    -0.10800
C275        C  0.66633736  0.34979576  0.14615294     0.03900
C276        C  0.67489323  0.34205484  0.12878766    -0.10200
H277        H  0.71141190  0.37604815  0.12138659     0.09500
H278        H  0.66805213  0.37314420  0.16762961     0.07000
H279        H  0.66904299  0.32862762  0.12245321     0.06900
C280        C  0.35821873  0.68484451  0.11607891     0.03900
C281        C  0.34881152  0.66850454  0.12511519    -0.12200
C282        C  0.35659968  0.65989348  0.14247264     0.01400
C283        C  0.37379438  0.66831533  0.15091755    -0.10800
C284        C  0.38332370  0.68478680  0.14235178     0.03900
C285        C  0.37561363  0.69253674  0.12468128    -0.10200
H286        H  0.33510646  0.66294098  0.11898701     0.09500
H287        H  0.37975612  0.66208954  0.16437976     0.07000
H288        H  0.38322518  0.70461117  0.11745220     0.06900
C289        C  0.68682502  0.16172233  0.32259673     0.03900
C290        C  0.69518925  0.17118157  0.33921497    -0.12200
C291        C  0.68638494  0.18811425  0.34757344     0.01400
C292        C  0.66892517  0.19558491  0.33897599    -0.10800
C293        C  0.66031613  0.18664980  0.32220167     0.03900
C294        C  0.66931210  0.16954884  0.31432717    -0.10200
H295        H  0.70899002  0.16573072  0.34523718     0.09500
H296        H  0.66196978  0.20847090  0.34544740     0.07000
H297        H  0.66284056  0.16243664  0.30157737     0.06900
C298        C  0.35563687  0.15179810  0.30562023     0.03900
C299        C  0.37245645  0.16083004  0.29725112    -0.12200
C300        C  0.37954026  0.17931736  0.30404966     0.01400
C301        C  0.36948476  0.18861491  0.31986486    -0.10800
C302        C  0.35281655  0.17963707  0.32881524     0.03900
C303        C  0.34610784  0.16129181  0.32147812    -0.10200
H304        H  0.38019732  0.15322455  0.28551113     0.09500
H305        H  0.37426097  0.20302672  0.32493447     0.07000
H306        H  0.33325012  0.15436618  0.32810811     0.06900
C307        C  0.17851624  0.84921744  0.11514555     0.03900
C308        C  0.16253135  0.84009521  0.12501238    -0.12200
C309        C  0.15323734  0.84924222  0.14134429     0.01400
C310        C  0.16066462  0.86768982  0.14797123    -0.10800
C311        C  0.17693323  0.87692450  0.13861061     0.03900
C312        C  0.18533601  0.86767715  0.12197356    -0.10200
H313        H  0.15764602  0.82569392  0.12009562     0.09500
H314        H  0.15365122  0.87498236  0.16035321     0.07000
H315        H  0.19739296  0.87488285  0.11433121     0.06900
C316        C  0.35323495  0.87390279  0.31470169     0.03900
C317        C  0.37065816  0.86559740  0.30672356    -0.12200
C318        C  0.38008953  0.84931096  0.31580723     0.01400
C319        C  0.37192021  0.84165982  0.33340953    -0.10800
C320        C  0.35440165  0.84945218  0.34154420     0.03900
C321        C  0.34526030  0.86557093  0.33205560    -0.10200
H322        H  0.37683897  0.87186721  0.29342967     0.09500
H323        H  0.37932598  0.82965041  0.34093226     0.07000
H324        H  0.33158634  0.87141171  0.33801147     0.06900
O325        O  0.29938100  0.03057812  0.22279790    -0.72200
O326        O  0.26382660  0.98986750  0.19699455    -0.73100
O327        O  0.26720111  0.03175278  0.19584158    -0.61800
O328        O  0.29631441  0.98832533  0.22393915    -0.70200
O329        O  0.27549461  0.99045237  0.24931695    -0.69700
O330        O  0.24626980  0.03432110  0.22108935    -0.61000
O331        O  0.24301867  0.99202245  0.22237768    -0.73500
O332        O  0.27852237  0.03242400  0.24816886    -0.72300
Cu333      Cu  0.28241815  0.01002426  0.20903640     1.04600
Cu334      Cu  0.26007522  0.01236439  0.23611279     1.04300
C335        C  0.29443316  0.03802572  0.23949853     0.94000
C336        C  0.24777488  0.98457295  0.20563972     0.93200
C337        C  0.25230055  0.04003407  0.20403993     0.85300
C338        C  0.29056621  0.98250551  0.24101258     0.91600
C339        C  0.35494494  0.16257578  0.63948701     0.03900
C340        C  0.34841694  0.16994674  0.62107224    -0.12200
C341        C  0.35865715  0.18539574  0.61136612     0.01400
C342        C  0.37598716  0.19302444  0.62017588    -0.10800
C343        C  0.38258461  0.18625506  0.63868268     0.03900
C344        C  0.37188174  0.17115402  0.64822779    -0.10200
H345        H  0.33506878  0.16394401  0.61456600     0.09500
H346        H  0.38431765  0.20453527  0.61272859     0.07000
H347        H  0.37636580  0.16671292  0.66288820     0.06900
C348        C  0.16326579  0.35166952  0.63742068     0.03900
C349        C  0.17256474  0.36850529  0.64528983    -0.12200
C350        C  0.18884962  0.37732760  0.63569530     0.01400
C351        C  0.19603395  0.36871060  0.61807265    -0.10800
C352        C  0.18711356  0.35150580  0.61006000     0.03900
C353        C  0.17060473  0.34336232  0.61989137    -0.10200
H354        H  0.16750419  0.37426575  0.65933847     0.09500
H355        H  0.20846689  0.37557102  0.61065468     0.07000
H356        H  0.16331299  0.33037094  0.61397304     0.06900
C357        C  0.16093000  0.34959969  0.30674618     0.03900
C358        C  0.17063352  0.34245813  0.32378890    -0.12200
C359        C  0.18647594  0.35293444  0.33251806     0.01400
C360        C  0.19280001  0.37076684  0.32374457    -0.10800
C361        C  0.18362848  0.37828194  0.30659108     0.03900
C362        C  0.16759108  0.36760384  0.29840829    -0.10200
H363        H  0.16612332  0.32843515  0.33004752     0.09500
H364        H  0.20508206  0.37864085  0.33030744     0.07000
H365        H  0.16026086  0.37348419  0.28552439     0.06900
C366        C  0.84771460  0.17981935  0.12030934     0.03900
C367        C  0.84078043  0.16216197  0.12881005    -0.12200
C368        C  0.85075600  0.15330186  0.14477748     0.01400
C369        C  0.86800192  0.16248202  0.15223467    -0.10800
C370        C  0.87506243  0.18050339  0.14425921     0.03900
C371        C  0.86467699  0.18896824  0.12826681    -0.10200
H372        H  0.82758008  0.15524807  0.12282532     0.09500
H373        H  0.87605023  0.15529887  0.16399634     0.07000
H374        H  0.86956776  0.20292040  0.12207025     0.06900
C375        C  0.85971307  0.37662561  0.32141973     0.03900
C376        C  0.85229373  0.36762011  0.33868190    -0.12200
C377        C  0.85986615  0.34935649  0.34546521     0.01400
C378        C  0.87533818  0.34037230  0.33468814    -0.10800
C379        C  0.88314845  0.34911446  0.31744294     0.03900
C380        C  0.87517011  0.36727367  0.31109298    -0.10200
H381        H  0.84060400  0.37493794  0.34670548     0.09500
H382        H  0.88116138  0.32639863  0.33969939     0.07000
H383        H  0.88074615  0.37406536  0.29773026     0.06900
O384        O  0.99567442  0.28833823  0.23125089    -0.72200
O385        O  0.03736228  0.26275751  0.19726570    -0.73100
O386        O  0.99536828  0.25943882  0.20080425    -0.61800
O387        O  0.03788508  0.29164233  0.22760674    -0.70200
O388        O  0.04149458  0.26807914  0.25025417    -0.69700
O389        O  0.99872358  0.23598173  0.22361135    -0.61000
O390        O  0.04057633  0.23908678  0.21987938    -0.73500
O391        O  0.99932787  0.26480267  0.25393187    -0.72300
Cu392      Cu  0.01643119  0.27640295  0.21347312     1.04600
Cu393      Cu  0.02017432  0.25118536  0.23771499     1.04300
C394        C  0.99069028  0.28045251  0.24775058     0.94000
C395        C  0.04556210  0.24681891  0.20332406     0.93200
C396        C  0.99022600  0.24270286  0.20809126     0.85300
C397        C  0.04669978  0.28477180  0.24288979     0.91600
C398        C  0.16074352  0.68766028  0.31069115     0.03900
C399        C  0.17067000  0.67153343  0.30194596    -0.12200
C400        C  0.18781638  0.66338124  0.31064110     0.01400
C401        C  0.19533257  0.67197777  0.32808445    -0.10800
C402        C  0.18585421  0.68822895  0.33699342     0.03900
C403        C  0.16851757  0.69576051  0.32826897    -0.10200
H404        H  0.16542850  0.66565051  0.28804170     0.09500
H405        H  0.20873257  0.66612694  0.33462645     0.07000
H406        H  0.16096768  0.70795679  0.33537774     0.06900
C407        C  0.15819217  0.17870649  0.14283134     0.03900
C408        C  0.16730473  0.16238735  0.15206287    -0.12200
C409        C  0.18569001  0.15509955  0.14563169     0.01400
C410        C  0.19519778  0.16449891  0.12965244    -0.10800
C411        C  0.18641308  0.18070625  0.11990351     0.03900
C412        C  0.16772550  0.18741994  0.12643525    -0.10200
H413        H  0.16009997  0.15520957  0.16442215     0.09500
H414        H  0.20973285  0.15949626  0.12514123     0.07000
H415        H  0.16056061  0.19935743  0.11865416     0.06900
C416        C  0.36074824  0.35878276  0.12045711     0.03900
C417        C  0.37797089  0.35009974  0.12846065    -0.12200
C418        C  0.38609998  0.35680229  0.14653919     0.01400
C419        C  0.37671007  0.37259908  0.15650388    -0.10800
C420        C  0.35966662  0.38167756  0.14867330     0.03900
C421        C  0.35212367  0.37479276  0.13055130    -0.10200
H422        H  0.38527232  0.33838776  0.12042658     0.09500
H423        H  0.38245652  0.37765752  0.17058263     0.07000
H424        H  0.33937540  0.38201194  0.12420887     0.06900
C425        C  0.18547905  0.16782429  0.81650354     0.03900
C426        C  0.19404531  0.17587226  0.83376036    -0.12200
C427        C  0.18520606  0.19197979  0.84377986     0.01400
C428        C  0.16751415  0.20000955  0.83607723    -0.10800
C429        C  0.15898774  0.19253479  0.81861140     0.03900
C430        C  0.16800809  0.17637581  0.80916483    -0.10200
H431        H  0.20782957  0.16982776  0.83918265     0.09500
H432        H  0.16009237  0.21188516  0.84375136     0.07000
H433        H  0.16142900  0.17050621  0.79581086     0.06900
C434        C  0.35312404  0.35390343  0.84127229     0.03900
C435        C  0.34352152  0.37022864  0.83258789    -0.12200
C436        C  0.35036739  0.37857496  0.81469565     0.01400
C437        C  0.36700273  0.37000235  0.80543413    -0.10800
C438        C  0.37689912  0.35377502  0.81390552     0.03900
C439        C  0.37003723  0.34614462  0.83200320    -0.10200
H440        H  0.33039326  0.37613919  0.83956048     0.09500
H441        H  0.37204692  0.37550671  0.79130539     0.07000
H442        H  0.37792307  0.33410494  0.83900290     0.06900
O443        O  0.27542581  0.30128090  0.00596965    -0.72200
O444        O  0.24015106  0.27465797  0.96567843    -0.73100
O445        O  0.24366915  0.27361915  0.00774292    -0.61800
O446        O  0.27173119  0.30254673  0.96421628    -0.70200
O447        O  0.29312168  0.27771452  0.96140699    -0.69700
O448        O  0.26522706  0.24887408  0.00558239    -0.61000
O449        O  0.26169754  0.24989444  0.96371003    -0.73500
O450        O  0.29692400  0.27652418  0.00339538    -0.72300
Cu451      Cu  0.25697350  0.28887694  0.98600498     1.04600
Cu452      Cu  0.27999232  0.26239123  0.98344360     1.04300
C453        C  0.29173831  0.29304258  0.01102145     0.94000
C454        C  0.24555176  0.25810146  0.95820367     0.93200
C455        C  0.25000315  0.25678821  0.01362353     0.85300
C456        C  0.28678031  0.29469517  0.95587313     0.91600
O457        O  0.23945738  0.49978019  0.22869266    -0.72200
O458        O  0.26799182  0.54090558  0.19585512    -0.73100
O459        O  0.26833308  0.49854318  0.19838296    -0.61800
O460        O  0.23887635  0.54193166  0.22651745    -0.70200
O461        O  0.26292330  0.54367955  0.24893834    -0.69700
O462        O  0.29223457  0.50022567  0.22095773    -0.61000
O463        O  0.29169385  0.54239893  0.21863148    -0.73500
O464        O  0.26320818  0.50156533  0.25140576    -0.72300
Cu465      Cu  0.25283189  0.52026144  0.21154668     1.04600
Cu466      Cu  0.27834724  0.52201884  0.23574258     1.04300
C467        C  0.24692910  0.49408620  0.24513880     0.94000
C468        C  0.28428010  0.54829675  0.20223977     0.93200
C469        C  0.28477556  0.49232131  0.20544109     0.85300
C470        C  0.24630801  0.54968777  0.24212624     0.91600
O471        O  0.54657903  0.28770303  0.22022251    -0.72200
O472        O  0.50217804  0.26260695  0.25076608    -0.73100
O473        O  0.54439087  0.26008686  0.25151536    -0.61800
O474        O  0.50452691  0.29032353  0.21917595    -0.70200
O475        O  0.50359813  0.26578236  0.19729711    -0.69700
O476        O  0.54320066  0.23526895  0.22995453    -0.61000
O477        O  0.50102167  0.23810855  0.22883932    -0.73500
O478        O  0.54596468  0.26301248  0.19848221    -0.72300
Cu479      Cu  0.52444796  0.27602993  0.23615963     1.04600
Cu480      Cu  0.52340253  0.24967965  0.21286322     1.04300
C481        C  0.55348004  0.27925112  0.20476778     0.94000
C482        C  0.49447810  0.24644344  0.24454174     0.93200
C483        C  0.55022591  0.24300769  0.24575900     0.85300
C484        C  0.49763443  0.28276152  0.20322209     0.91600
O485        O  0.26830651  0.29200694  0.44912629    -0.72200
O486        O  0.29803964  0.26202997  0.49166545    -0.73100
O487        O  0.29821165  0.26240490  0.44955071    -0.61800
O488        O  0.26888427  0.29212797  0.49121830    -0.70200
O489        O  0.24539391  0.26902982  0.49230627    -0.69700
O490        O  0.27446819  0.23955867  0.44861050    -0.61000
O491        O  0.27477596  0.23868372  0.49094443    -0.73500
O492        O  0.24456645  0.26915746  0.45024520    -0.72300
Cu493      Cu  0.28417109  0.27792901  0.47038604     1.04600
Cu494      Cu  0.25898795  0.25326409  0.47053012     1.04300
C495        C  0.25157485  0.28523611  0.44314239     0.94000
C496        C  0.29096462  0.24556577  0.49797651     0.93200
C497        C  0.29098082  0.24653394  0.44221881     0.85300
C498        C  0.25275357  0.28542714  0.49851240     0.91600
O499        O  0.26460914  0.73891071  0.50314447    -0.72200
O500        O  0.29888062  0.76409489  0.46130071    -0.73100
O501        O  0.29658398  0.76617337  0.50368553    -0.61800
O502        O  0.26688095  0.73663647  0.46132949    -0.70200
O503        O  0.24563653  0.76163462  0.45894023    -0.69700
O504        O  0.27545898  0.79125487  0.50110281    -0.61000
O505        O  0.27749324  0.78900689  0.45931219    -0.73500
O506        O  0.24363755  0.76418916  0.50107242    -0.72300
Cu507      Cu  0.28252843  0.75058607  0.48243834     1.04600
Cu508      Cu  0.25982257  0.77736879  0.47999619     1.04300
C509        C  0.24885553  0.74775931  0.50883771     0.94000
C510        C  0.29340331  0.78051176  0.45359191     0.93200
C511        C  0.29049550  0.78320184  0.50931629     0.85300
C512        C  0.25160471  0.74451916  0.45341161     0.91600
O513        O  0.80046745  0.27285602  0.46665027    -0.72200
O514        O  0.77007120  0.24436217  0.50973964    -0.73100
O515        O  0.77092931  0.24272909  0.46766409    -0.61800
O516        O  0.80008151  0.27407876  0.50890413    -0.70200
O517        O  0.77660420  0.29709461  0.50875059    -0.69700
O518        O  0.74820810  0.26642879  0.46576038    -0.61000
O519        O  0.74663024  0.26735178  0.50778102    -0.73500
O520        O  0.77752962  0.29643139  0.46676535    -0.72300
Cu521      Cu  0.78623114  0.25769580  0.48830345     1.04600
Cu522      Cu  0.76143863  0.28261696  0.48724868     1.04300
C523        C  0.79359675  0.28920797  0.45993057     0.94000
C524        C  0.75337049  0.25140854  0.51535171     0.93200
C525        C  0.75513586  0.24974748  0.45996953     0.85300
C526        C  0.79301037  0.29035095  0.51548461     0.91600
O527        O  0.29028485  0.53941016  0.73165941    -0.72200
O528        O  0.26194054  0.49654240  0.70153202    -0.73100
O529        O  0.25949179  0.53864619  0.70297261    -0.61800
O530        O  0.29263000  0.49736035  0.73017666    -0.70200
O531        O  0.26978113  0.49496059  0.75374599    -0.69700
O532        O  0.23707616  0.53678919  0.72700060    -0.61000
O533        O  0.23896314  0.49497709  0.72506394    -0.73500
O534        O  0.26785932  0.53699454  0.75563448    -0.72300
Cu535      Cu  0.27687862  0.51807555  0.71574166     1.04600
Cu536      Cu  0.25266544  0.51585412  0.74121486     1.04300
C537        C  0.28348252  0.54497247  0.74842352     0.94000
C538        C  0.24595918  0.48906557  0.70851502     0.93200
C539        C  0.24310751  0.54426067  0.71069410     0.85300
C540        C  0.28628135  0.48949319  0.74618439     0.91600
O541        O  0.76789140  0.49144409  0.21313488    -0.72200
O542        O  0.79837914  0.53397310  0.24092909    -0.73100
O543        O  0.79645081  0.49225430  0.24396598    -0.61800
O544        O  0.76976484  0.53332052  0.21024250    -0.70200
O545        O  0.74525521  0.53527220  0.23212186    -0.69700
O546        O  0.77234682  0.49462679  0.26625583    -0.61000
O547        O  0.77392730  0.53674119  0.26281139    -0.73500
O548        O  0.74387177  0.49339219  0.23558012    -0.72300
Cu549      Cu  0.78395358  0.51263561  0.22629470     1.04600
Cu550      Cu  0.75801044  0.51510807  0.24999555     1.04300
C551        C  0.75118963  0.48563061  0.21997438     0.94000
C552        C  0.79082569  0.54223920  0.25614622     0.93200
C553        C  0.78862940  0.48693883  0.26038259     0.85300
C554        C  0.75329398  0.54079274  0.21587348     0.91600
O555        O  0.54008330  0.26236860  0.71023573    -0.72200
O556        O  0.49589208  0.29084243  0.73843237    -0.73100
O557        O  0.53816631  0.29227814  0.73955912    -0.61800
O558        O  0.49766174  0.26110941  0.70895859    -0.70200
O559        O  0.49783897  0.23748435  0.73184914    -0.69700
O560        O  0.53771090  0.26922095  0.76301327    -0.61000
O561        O  0.49544334  0.26711512  0.76122990    -0.73500
O562        O  0.53989166  0.23936726  0.73375751    -0.72300
Cu563      Cu  0.51794540  0.27746201  0.72346770     1.04600
Cu564      Cu  0.51773060  0.25251682  0.74829111     1.04300
C565        C  0.54711106  0.24647194  0.71778068     0.94000
C566        C  0.48847564  0.28318272  0.75410040     0.93200
C567        C  0.54450569  0.28551912  0.75605014     0.85300
C568        C  0.49122719  0.24454034  0.71558067     0.91600
O569        O  0.54085518  0.77349325  0.25457498    -0.72200
O570        O  0.50092336  0.74638819  0.22009044    -0.73100
O571        O  0.54306929  0.74584686  0.22329465    -0.61800
O572        O  0.49885663  0.77419643  0.25142795    -0.70200
O573        O  0.50119385  0.79897833  0.22991491    -0.69700
O574        O  0.54454168  0.77004754  0.20105725    -0.61000
O575        O  0.50229414  0.77119820  0.19852316    -0.73500
O576        O  0.54333181  0.79793289  0.23267840    -0.72300
Cu577      Cu  0.52085344  0.75911913  0.23807492     1.04600
Cu578      Cu  0.52293380  0.78540762  0.21476857     1.04300
C579        C  0.54853799  0.78988779  0.24902038     0.94000
C580        C  0.49500399  0.75460712  0.20410448     0.93200
C581        C  0.55083149  0.75350699  0.20779742     0.85300
C582        C  0.49304842  0.79107206  0.24508047     0.91600
O583        O  0.79636401  0.77082074  0.50595332    -0.72200
O584        O  0.76575349  0.80232642  0.46583959    -0.73100
O585        O  0.76716885  0.80056247  0.50767347    -0.61800
O586        O  0.79528619  0.77267451  0.46377203    -0.70200
O587        O  0.77173755  0.74960593  0.46305057    -0.69700
O588        O  0.74363334  0.77746509  0.50786883    -0.61000
O589        O  0.74201407  0.77944095  0.46575614    -0.73500
O590        O  0.77306580  0.74749043  0.50508623    -0.72300
Cu591      Cu  0.78196099  0.78737267  0.48579727     1.04600
Cu592      Cu  0.75678261  0.76266738  0.48541440     1.04300
C593        C  0.78937379  0.75425582  0.51200133     0.94000
C594        C  0.74904411  0.79591018  0.45953182     0.93200
C595        C  0.75115521  0.79343659  0.51485589     0.85300
C596        C  0.78794841  0.75687780  0.45632576     0.91600
O597        O  0.78992593  0.50321423  0.73194193    -0.72200
O598        O  0.76109300  0.54590080  0.76178079    -0.73100
O599        O  0.75930794  0.50376369  0.76045839    -0.61800
O600        O  0.79173391  0.54546086  0.73327129    -0.70200
O601        O  0.76977805  0.54673473  0.70878768    -0.69700
O602        O  0.73630886  0.50598348  0.73702852    -0.61000
O603        O  0.73913147  0.54827984  0.73739219    -0.73500
O604        O  0.76710921  0.50459825  0.70826947    -0.72300
Cu605      Cu  0.77629093  0.52452131  0.74768630     1.04600
Cu606      Cu  0.75228502  0.52643370  0.72202066     1.04300
C607        C  0.78289665  0.49701193  0.71548136     0.94000
C608        C  0.74580430  0.55406746  0.75414817     0.93200
C609        C  0.74277275  0.49818955  0.75303535     0.85300
C610        C  0.78580525  0.55285675  0.71689916     0.91600
O611        O  0.53367010  0.75065737  0.72885120    -0.72200
O612        O  0.49302417  0.78468861  0.70175535    -0.73100
O613        O  0.53499927  0.78446552  0.70385204    -0.61800
O614        O  0.49131497  0.75088539  0.72668488    -0.70200
O615        O  0.49007598  0.77079750  0.75283616    -0.69700
O616        O  0.53443662  0.80361757  0.73060215    -0.61000
O617        O  0.49219500  0.80444644  0.72804551    -0.73500
O618        O  0.53211016  0.76997877  0.75542164    -0.72300
Cu619      Cu  0.51329579  0.76696114  0.71436488     1.04600
Cu620      Cu  0.51215860  0.78788624  0.74263536     1.04300
C621        C  0.53942637  0.75506507  0.74635294     0.94000
C622        C  0.48615326  0.79990196  0.71069014     0.93200
C623        C  0.54171399  0.79920664  0.71370718     0.85300
C624        C  0.48361696  0.75575781  0.74327712     0.91600
C625        C  0.30823816  0.32842328  0.91544932     0.16700
C626        C  0.31284603  0.34400776  0.90249277    -0.32300
C627        C  0.32625566  0.34009730  0.88710245     0.21100
C628        C  0.33474396  0.32155147  0.88479290     0.03300
C629        C  0.33032926  0.30603553  0.89786689    -0.22000
C630        C  0.31689001  0.30991503  0.91320566     0.12500
S631        S  0.29178472  0.32992229  0.93458968    -0.05700
C632        C  0.29674375  0.30539270  0.93971237    -0.09200
C633        C  0.31044340  0.29665230  0.92717187    -0.25800
S634        S  0.35007883  0.31959866  0.86486629    -0.03000
C635        C  0.34506074  0.34411202  0.85934210    -0.16400
C636        C  0.33218704  0.35313507  0.87267789    -0.14400
H637        H  0.30606679  0.35845606  0.90416649     0.21000
H638        H  0.33689583  0.29150976  0.89601721     0.17000
H639        H  0.31518430  0.28134062  0.92802963     0.19500
H640        H  0.32726751  0.36837724  0.87194642     0.12900
C641        C  0.42229408  0.33624799  0.78366939     0.16700
C642        C  0.43857806  0.33439493  0.77089335    -0.32300
C643        C  0.44874564  0.31627479  0.77088476     0.21100
C644        C  0.44295421  0.30071539  0.78303853     0.03300
C645        C  0.42651979  0.30248470  0.79557234    -0.22000
C646        C  0.41640407  0.32059994  0.79560303     0.12500
S647        S  0.40821843  0.35707100  0.78624296    -0.05700
C648        C  0.39411581  0.34458470  0.80364178    -0.09200
C649        C  0.40025021  0.32519157  0.80693875    -0.25800
S650        S  0.45749154  0.28015293  0.78131118    -0.03000
C651        C  0.47147267  0.29256806  0.76390421    -0.16400
C652        C  0.46505587  0.31161987  0.75971199    -0.14400
H653        H  0.44320778  0.34657380  0.76150111     0.21000
H654        H  0.42193228  0.29033776  0.80503112     0.17000
H655        H  0.39321113  0.31474968  0.81688967     0.19500
H656        H  0.47203250  0.32155671  0.74919166     0.12900
C657        C  0.31724577  0.42176813  0.79636278     0.16700
C658        C  0.30225156  0.43581618  0.79351575    -0.32300
C659        C  0.30446136  0.44915899  0.77776086     0.21100
C660        C  0.32086603  0.44858927  0.76537211     0.03300
C661        C  0.33594470  0.43460258  0.76833190    -0.22000
C662        C  0.33370198  0.42122623  0.78411064     0.12500
S663        S  0.31716999  0.40416480  0.81443030    -0.05700
C664        C  0.33971938  0.39573816  0.80557071    -0.09200
C665        C  0.34665500  0.40648208  0.78931498    -0.25800
S666        S  0.32043761  0.46576152  0.74677465    -0.03000
C667        C  0.29790335  0.47376220  0.75582281    -0.16400
C668        C  0.29129058  0.46361929  0.77241847    -0.14400
H669        H  0.28935407  0.43623804  0.80307870     0.21000
H670        H  0.34877121  0.43406734  0.75868019     0.17000
H671        H  0.36047163  0.40398291  0.78159215     0.19500
H672        H  0.27740817  0.46644941  0.77998588     0.12900
C673        C  0.21195115  0.24026200  0.91578203     0.16700
C674        C  0.19842035  0.23855693  0.90007240    -0.32300
C675        C  0.20008971  0.22194352  0.88762720     0.21100
C676        C  0.21437692  0.20758915  0.89082722     0.03300
C677        C  0.22783337  0.20922784  0.90654491    -0.22000
C678        C  0.22633675  0.22591560  0.91881764     0.12500
S679        S  0.21319062  0.25976067  0.93195005    -0.05700
C680        C  0.23352422  0.24857318  0.94264998    -0.09200
C681        C  0.23867824  0.23055443  0.93423062    -0.25800
S682        S  0.21415768  0.18879463  0.87397006    -0.03000
C683        C  0.19455580  0.20030176  0.86211366    -0.16400
C684        C  0.18875723  0.21794171  0.87123074    -0.14400
H685        H  0.18731645  0.24984081  0.89745550     0.21000
H686        H  0.23919967  0.19814924  0.90890201     0.17000
H687        H  0.25120075  0.22158944  0.93875530     0.19500
H688        H  0.17713918  0.22772610  0.86616335     0.12900
C689        C  0.32826198  0.31047905  0.05106669     0.16700
C690        C  0.34289790  0.31196208  0.06577799    -0.32300
C691        C  0.34317537  0.32919262  0.07743486     0.21100
C692        C  0.32972580  0.34435878  0.07430420     0.03300
C693        C  0.31515852  0.34294163  0.05957348    -0.22000
C694        C  0.31464271  0.32559341  0.04818347     0.12500
S695        S  0.32481374  0.29043843  0.03599899    -0.05700
C696        C  0.30457905  0.30241201  0.02598548    -0.09200
C697        C  0.30100622  0.32105661  0.03381963    -0.25800
S698        S  0.33202572  0.36365848  0.09032377    -0.03000
C699        C  0.35119295  0.35115211  0.10194264    -0.16400
C700        C  0.35552146  0.33295715  0.09318358    -0.14400
H701        H  0.35332168  0.30003050  0.06831173     0.21000
H702        H  0.30441016  0.35465737  0.05739408     0.17000
H703        H  0.28888223  0.33063824  0.02948023     0.19500
H704        H  0.36653486  0.32253546  0.09835343     0.12900
C705        C  0.34017042  0.42667280  0.17861950     0.16700
C706        C  0.33765192  0.44327452  0.19089074    -0.32300
C707        C  0.31934176  0.45316355  0.19006517     0.21100
C708        C  0.30424323  0.44681763  0.17760302     0.03300
C709        C  0.30666277  0.43007588  0.16561905    -0.22000
C710        C  0.32493671  0.42023523  0.16643889     0.12500
S711        S  0.36138996  0.41293403  0.17677130    -0.05700
C712        C  0.34964482  0.39831874  0.15925665    -0.09200
C713        C  0.33011634  0.40395460  0.15558982    -0.25800
S714        S  0.28332409  0.46099732  0.17837540    -0.03000
C715        C  0.29490527  0.47556396  0.19587322    -0.16400
C716        C  0.31400718  0.46962367  0.20070939    -0.14400
H717        H  0.34947893  0.44836395  0.20050460     0.21000
H718        H  0.29487916  0.42504816  0.15591316     0.17000
H719        H  0.31996389  0.39663323  0.14555003     0.19500
H720        H  0.32346537  0.47694894  0.21143602     0.12900
C721        C  0.45501154  0.30342689  0.17148556     0.16700
C722        C  0.43874969  0.30602174  0.15876123    -0.32300
C723        C  0.42803432  0.32380176  0.16025790     0.21100
C724        C  0.43343657  0.33843957  0.17360250     0.03300
C725        C  0.44973395  0.33590013  0.18626622    -0.22000
C726        C  0.46026259  0.31801864  0.18498660     0.12500
S727        S  0.46929846  0.28254506  0.17272047    -0.05700
C728        C  0.48224896  0.29342828  0.19190817    -0.09200
C729        C  0.47589006  0.31238747  0.19671457    -0.25800
S730        S  0.41832898  0.35870025  0.17338509    -0.03000
C731        C  0.40425213  0.34739793  0.15514211    -0.16400
C732        C  0.41136253  0.32877728  0.14969484    -0.14400
H733        H  0.43441607  0.29453601  0.14840527     0.21000
H734        H  0.45379688  0.34721172  0.19691759     0.17000
H735        H  0.48203374  0.32137915  0.20852125     0.19500
H736        H  0.40455913  0.31901387  0.13893673     0.12900
C737        C  0.21810066  0.23634017  0.05598849     0.16700
C738        C  0.20400213  0.23323433  0.07090718    -0.32300
C739        C  0.20465829  0.21519860  0.08118972     0.21100
C740        C  0.21867717  0.20087515  0.07682505     0.03300
C741        C  0.23288616  0.20400990  0.06196729    -0.22000
C742        C  0.23225316  0.22207423  0.05168389     0.12500
S743        S  0.21959755  0.25714909  0.04172956    -0.05700
C744        C  0.23955282  0.24657933  0.02981637    -0.09200
C745        C  0.24468849  0.22790204  0.03668986    -0.25800
S746        S  0.21688368  0.18004948  0.09103334    -0.03000
C747        C  0.19699483  0.19071679  0.10322418    -0.16400
C748        C  0.19229177  0.20956440  0.09626882    -0.14400
H749        H  0.19297922  0.24438116  0.07433282     0.21000
H750        H  0.24392118  0.19287002  0.05856736     0.17000
H751        H  0.25677297  0.21903355  0.03095632     0.19500
H752        H  0.18073642  0.21903261  0.10205850     0.12900
C753        C  0.22056390  0.62083888  0.29052780     0.16700
C754        C  0.23589887  0.60759119  0.28599794    -0.32300
C755        C  0.23170017  0.59228051  0.27256847     0.21100
C756        C  0.21309291  0.59024687  0.26400522     0.03300
C757        C  0.19770367  0.60334100  0.26875379    -0.22000
C758        C  0.20191384  0.61866456  0.28216416     0.12500
S759        S  0.22270913  0.64061711  0.30612060    -0.05700
C760        C  0.19810360  0.64614874  0.30143026    -0.09200
C761        C  0.18897371  0.63298894  0.28840755    -0.25800
S762        S  0.21121818  0.57119023  0.24745763    -0.03000
C763        C  0.23572621  0.56580268  0.25224938    -0.16400
C764        C  0.24471590  0.57816936  0.26600699    -0.14400
H765        H  0.25050113  0.60925014  0.29250869     0.21000
H766        H  0.18315001  0.60179507  0.26211062     0.17000
H767        H  0.17360280  0.63359100  0.28381369     0.19500
H768        H  0.26006880  0.57713801  0.27064930     0.12900
C769        C  0.20410679  0.71952679  0.38137127     0.16700
C770        C  0.20832066  0.73461761  0.39500184    -0.32300
C771        C  0.22116998  0.73012357  0.41068210     0.21100
C772        C  0.22940924  0.71141310  0.41277354     0.03300
C773        C  0.22493985  0.69622447  0.39928915    -0.22000
C774        C  0.21217857  0.70077440  0.38351089     0.12500
S775        S  0.18946309  0.72224424  0.36099125    -0.05700
C776        C  0.19414003  0.69775781  0.35510258    -0.09200
C777        C  0.20648458  0.68820564  0.36857361    -0.25800
S778        S  0.24551743  0.70930639  0.43218490    -0.03000
C779        C  0.24106659  0.73389596  0.43752915    -0.16400
C780        C  0.22764498  0.74303365  0.42496347    -0.14400
H781        H  0.20212024  0.74931714  0.39327062     0.21000
H782        H  0.23142348  0.68162487  0.40080833     0.17000
H783        H  0.21104159  0.67285750  0.36766168     0.19500
H784        H  0.22334692  0.75847483  0.42584177     0.12900
C785        C  0.11057780  0.19459303  0.17061196     0.16700
C786        C  0.09530163  0.19673276  0.18443798    -0.32300
C787        C  0.08381183  0.21393799  0.18342902     0.21100
C788        C  0.08705643  0.22827118  0.16905761     0.03300
C789        C  0.10232457  0.22603777  0.15508444    -0.22000
C790        C  0.11411890  0.20892111  0.15635920     0.12500
S791        S  0.12682897  0.17539716  0.17033225    -0.05700
C792        C  0.13917934  0.18677036  0.15094479    -0.09200
C793        C  0.13042189  0.20454178  0.14499100    -0.25800
S794        S  0.07166707  0.24832568  0.17084732    -0.03000
C795        C  0.06107229  0.23730348  0.19135058    -0.16400
C796        C  0.06898069  0.21902688  0.19622817    -0.14400
H797        H  0.09280006  0.18568733  0.19581799     0.21000
H798        H  0.10518738  0.23733689  0.14404567     0.17000
H799        H  0.13589037  0.21430019  0.13351691     0.19500
H800        H  0.06433713  0.21004936  0.20870748     0.12900
C801        C  0.92397108  0.32995635  0.28182314     0.16700
C802        C  0.93759371  0.32742859  0.26639282    -0.32300
C803        C  0.95024469  0.31102206  0.26735176     0.21100
C804        C  0.94929539  0.29759876  0.28287997     0.03300
C805        C  0.93553470  0.30008261  0.29827708    -0.22000
C806        C  0.92297390  0.31664757  0.29738774     0.12500
S807        S  0.90773884  0.34912720  0.28352605    -0.05700
C808        C  0.89925995  0.33937433  0.30568308    -0.09200
C809        C  0.90890599  0.32189762  0.31109441    -0.25800
S810        S  0.96615532  0.27878324  0.28131538    -0.03000
C811        C  0.97462001  0.28925389  0.25957886    -0.16400
C812        C  0.96468992  0.30629784  0.25392498    -0.14400
H813        H  0.93842481  0.33789950  0.25426799     0.21000
H814        H  0.93477997  0.28969296  0.31047550     0.17000
H815        H  0.90615280  0.31335002  0.32434326     0.19500
H816        H  0.96788953  0.31481242  0.24070374     0.12900
C817        C  0.84312542  0.42469602  0.29508369     0.16700
C818        C  0.84115432  0.44073352  0.28209048    -0.32300
C819        C  0.82287505  0.45055022  0.28167472     0.21100
C820        C  0.80734935  0.44500230  0.29398556     0.03300
C821        C  0.80937027  0.42896502  0.30707844    -0.22000
C822        C  0.82756495  0.41883582  0.30716274     0.12500
S823        S  0.86364955  0.41015177  0.29673152    -0.05700
C824        C  0.85112426  0.39543795  0.31359403    -0.09200
C825        C  0.83204498  0.40212402  0.31785581    -0.25800
S826        S  0.78623806  0.45866604  0.29084018    -0.03000
C827        C  0.79838772  0.47162578  0.27243950    -0.16400
C828        C  0.81780859  0.46574533  0.26925477    -0.14400
H829        H  0.85318079  0.44504030  0.27233965     0.21000
H830        H  0.79715633  0.42428893  0.31641636     0.17000
H831        H  0.82156482  0.39476025  0.32753361     0.19500
H832        H  0.82762662  0.47207144  0.25821870     0.12900
C833        C  0.84239536  0.31691472  0.38967405     0.16700
C834        C  0.83917927  0.30180466  0.40358195    -0.32300
C835        C  0.82465066  0.30501925  0.41809112     0.21100
C836        C  0.81382666  0.32248169  0.41866580     0.03300
C837        C  0.81715956  0.33760306  0.40485005    -0.22000
C838        C  0.83167766  0.33437547  0.39036391     0.12500
S839        S  0.85897654  0.31579754  0.37069925    -0.05700
C840        C  0.85150733  0.33924576  0.36337528    -0.09200
C841        C  0.83681563  0.34721893  0.37550371    -0.25800
S842        S  0.79641216  0.32334496  0.43690525    -0.03000
C843        C  0.80380052  0.29994334  0.44395503    -0.16400
C844        C  0.81903660  0.29201511  0.43268926    -0.14400
H845        H  0.84750397  0.28810295  0.40301308     0.21000
H846        H  0.80866507  0.35120847  0.40525480     0.17000
H847        H  0.82996263  0.36157752  0.37378842     0.19500
H848        H  0.82531787  0.27739664  0.43476621     0.12900
C849        C  0.92114649  0.21168676  0.15935126     0.16700
C850        C  0.93632183  0.22585511  0.16093486    -0.32300
C851        C  0.94933703  0.22429386  0.17706533     0.21100
C852        C  0.94746015  0.20918655  0.19087820     0.03300
C853        C  0.93228862  0.19502120  0.18925373    -0.22000
C854        C  0.91914929  0.19671295  0.17322770     0.12500
S855        S  0.90363711  0.21121639  0.14116819    -0.05700
C856        C  0.89317859  0.19056150  0.15232361    -0.09200
C857        C  0.90320813  0.18463996  0.16938254    -0.25800
S858        S  0.96447781  0.21009391  0.20958554    -0.03000
C859        C  0.97407192  0.23122956  0.19885150    -0.16400
C860        C  0.96460211  0.23699620  0.18155036    -0.14400
H861        H  0.93777398  0.23770453  0.15020256     0.21000
H862        H  0.93065639  0.18333043  0.20013246     0.17000
H863        H  0.89914744  0.17235951  0.17883882     0.19500
H864        H  0.96844520  0.24998493  0.17291534     0.12900
C865        C  0.11690519  0.31587154  0.29039571     0.16700
C866        C  0.10185090  0.30151843  0.28894838    -0.32300
C867        C  0.08878901  0.30276329  0.27279353     0.21100
C868        C  0.09068381  0.31759285  0.25869105     0.03300
C869        C  0.10586865  0.33179101  0.26004968    -0.22000
C870        C  0.11887131  0.33058263  0.27624761     0.12500
S871        S  0.13386807  0.31734067  0.30909174    -0.05700
C872        C  0.14391255  0.33820623  0.29790887    -0.09200
C873        C  0.13428962  0.34327530  0.28032052    -0.25800
S874        S  0.07330421  0.31665862  0.24030009    -0.03000
C875        C  0.06339554  0.29596431  0.25161964    -0.16400
C876        C  0.07317981  0.29025855  0.26878965    -0.14400
H877        H  0.10029887  0.28998327  0.30000118     0.21000
H878        H  0.10738995  0.34337102  0.24903845     0.17000
H879        H  0.13804089  0.35560428  0.27080909     0.19500
H880        H  0.06918730  0.27755668  0.27777285     0.12900
C881        C  0.22027123  0.33588902  0.37571102     0.16700
C882        C  0.23609109  0.33229471  0.38872314    -0.32300
C883        C  0.23352985  0.31747806  0.40308386     0.21100
C884        C  0.21592891  0.30685826  0.40450839     0.03300
C885        C  0.20000785  0.31070437  0.39172261    -0.22000
C886        C  0.20265882  0.32537354  0.37723927     0.12500
S887        S  0.22081662  0.35239665  0.35660752    -0.05700
C888        C  0.19702571  0.34501157  0.35029650    -0.09200
C889        C  0.18923406  0.33062876  0.36291258    -0.25800
S890        S  0.21602396  0.28888778  0.42225474    -0.03000
C891        C  0.24003138  0.29575124  0.42791626    -0.16400
C892        C  0.24741121  0.31126203  0.41660213    -0.14400
H893        H  0.24992638  0.34039902  0.38744032     0.21000
H894        H  0.18631773  0.30231470  0.39273039     0.17000
H895        H  0.17458716  0.32412980  0.36174437     0.19500
H896        H  0.26224476  0.31734775  0.41789359     0.12900
C897        C  0.22714909  0.45348627  0.27996116     0.16700
C898        C  0.22417151  0.43961325  0.29516391    -0.32300
C899        C  0.20983007  0.42477564  0.29211289     0.21100
C900        C  0.19883409  0.42391530  0.27482518     0.03300
C901        C  0.20154753  0.43797194  0.25976263    -0.22000
C902        C  0.21599666  0.45269035  0.26271692     0.12500
S903        S  0.24472313  0.47180317  0.28018442    -0.05700
C904        C  0.23696885  0.47846187  0.25677582    -0.09200
C905        C  0.22143764  0.46709079  0.24943378    -0.25800
S906        S  0.18285256  0.40432059  0.27365458    -0.03000
C907        C  0.19096952  0.39688658  0.29682036    -0.16400
C908        C  0.20533709  0.40952220  0.30480231    -0.14400
H909        H  0.23296609  0.44008501  0.30858355     0.21000
H910        H  0.19307159  0.43721143  0.24615370     0.17000
H911        H  0.21489558  0.46885746  0.23488886     0.19500
H912        H  0.21244599  0.40783531  0.31904366     0.12900
C913        C  0.20182348  0.31979513  0.56439730     0.16700
C914        C  0.20338537  0.30517712  0.54968379    -0.32300
C915        C  0.22032920  0.30548362  0.53761349     0.21100
C916        C  0.23485586  0.31990714  0.53996235     0.03300
C917        C  0.23323650  0.33451991  0.55462393    -0.22000
C918        C  0.21645222  0.33403039  0.56685920     0.12500
S919        S  0.18292912  0.32150111  0.58100501    -0.05700
C920        C  0.19489929  0.34154056  0.59183779    -0.09200
C921        C  0.21263226  0.34650681  0.58245459    -0.25800
S922        S  0.25438998  0.31771429  0.52414840    -0.03000
C923        C  0.24310429  0.29694504  0.51434500    -0.16400
C924        C  0.22498289  0.29218557  0.52289704    -0.14400
H925        H  0.19205805  0.29388792  0.54794364     0.21000
H926        H  0.24472513  0.34560609  0.55660384     0.17000
H927        H  0.22264896  0.35822905  0.58691171     0.19500
H928        H  0.21584200  0.27963019  0.51872491     0.12900
C929        C  0.21303554  0.44951746  0.68430783     0.16700
C930        C  0.19771966  0.43658271  0.67877992    -0.32300
C931        C  0.20207831  0.42200034  0.66463836     0.21100
C932        C  0.22078588  0.42036018  0.65630657     0.03300
C933        C  0.23603338  0.43351017  0.66158733    -0.22000
C934        C  0.23169420  0.44809097  0.67574816     0.12500
S935        S  0.21102648  0.46758515  0.70189321    -0.05700
C936        C  0.23553050  0.47343024  0.69749161    -0.09200
C937        C  0.24462876  0.46193582  0.68312295    -0.25800
S938        S  0.22318739  0.40112388  0.64004137    -0.03000
C939        C  0.19866275  0.39506690  0.64451580    -0.16400
C940        C  0.18931393  0.40775582  0.65781536    -0.14400
H941        H  0.18313791  0.43762396  0.68544689     0.21000
H942        H  0.25070124  0.43226057  0.65515587     0.17000
H943        H  0.26000388  0.46334880  0.67864309     0.19500
H944        H  0.17396940  0.40670411  0.66243394     0.12900
C945        C  0.34168437  0.21650162  0.56627933     0.16700
C946        C  0.33824885  0.23161785  0.55247670    -0.32300
C947        C  0.32309569  0.22865857  0.53856972     0.21100
C948        C  0.31193271  0.21135213  0.53833334     0.03300
C949        C  0.31556441  0.19610960  0.55200042    -0.22000
C950        C  0.33064853  0.19915546  0.56602530     0.12500
S951        S  0.35863448  0.21776343  0.58491161    -0.05700
C952        C  0.35082346  0.19462353  0.59282652    -0.09200
C953        C  0.33589063  0.18648352  0.58104872    -0.25800
S954        S  0.29370022  0.21099254  0.52078524    -0.03000
C955        C  0.30124979  0.23438839  0.51364438    -0.16400
C956        C  0.31711209  0.24189768  0.52437150    -0.14400
H957        H  0.34677544  0.24524942  0.55280028     0.21000
H958        H  0.30676464  0.18264826  0.55195165     0.17000
H959        H  0.32892090  0.17220359  0.58332377     0.19500
H960        H  0.32364894  0.25642092  0.52217667     0.12900
C961        C  0.42484801  0.21791212  0.66102874     0.16700
C962        C  0.43801201  0.23309410  0.66635368    -0.32300
C963        C  0.45144758  0.22925608  0.68171404     0.21100
C964        C  0.45177312  0.21114033  0.69142277     0.03300
C965        C  0.43868756  0.19587730  0.68596773    -0.22000
C966        C  0.42523866  0.19972996  0.67056317     0.12500
S967        S  0.40711618  0.21985973  0.64314887    -0.05700
C968        C  0.39990104  0.19585570  0.64851094    -0.09200
C969        C  0.41110023  0.18697233  0.66337990    -0.25800
S970        S  0.46889904  0.20971940  0.71005168    -0.03000
C971        C  0.47581299  0.23371818  0.70449718    -0.16400
C972        C  0.46524962  0.24221995  0.68908150    -0.14400
H973        H  0.43769585  0.24733328  0.65894837     0.21000
H974        H  0.43884936  0.18171038  0.69351121     0.17000
H975        H  0.40907405  0.17199974  0.66878557     0.19500
H976        H  0.46737129  0.25721227  0.68371706     0.12900
C977        C  0.23206615  0.08197249  0.17142229     0.16700
C978        C  0.22830253  0.09570323  0.15630996    -0.32300
C979        C  0.21455971  0.11078398  0.16019406     0.21100
C980        C  0.20499865  0.11213643  0.17830571     0.03300
C981        C  0.20867347  0.09834330  0.19340540    -0.22000
C982        C  0.22240261  0.08323210  0.18951688     0.12500
S983        S  0.24856465  0.06291739  0.16975126    -0.05700
C984        C  0.24237716  0.05647589  0.19367854    -0.09200
C985        C  0.22817733  0.06854790  0.20234522    -0.25800
S986        S  0.18890018  0.13150526  0.18005356    -0.03000
C987        C  0.19494938  0.13794358  0.15599340    -0.16400
C988        C  0.20888309  0.12546351  0.14735231    -0.14400
H989        H  0.23582632  0.09472329  0.14216996     0.21000
H990        H  0.20119900  0.09937549  0.20756716     0.17000
H991        H  0.22266830  0.06690513  0.21732673     0.19500
H992        H  0.21437234  0.12672171  0.13234086     0.12900
C993        C  0.32314190  0.91926705  0.29620738     0.16700
C994        C  0.31001829  0.93522851  0.29397200    -0.32300
C995        C  0.30974186  0.94498447  0.27561582     0.21100
C996        C  0.32212556  0.93923274  0.26025907     0.03300
C997        C  0.33519736  0.92325114  0.26250496    -0.22000
C998        C  0.33533238  0.91338672  0.28079519     0.12500
S999        S  0.32555272  0.90533606  0.31713352    -0.05700
C1000       C  0.34317478  0.89113357  0.30505239    -0.09200
C1001       C  0.34674784  0.89730787  0.28568218    -0.25800
S1002       S  0.31957110  0.95291977  0.23915516    -0.03000
C1003       C  0.30140221  0.96639895  0.25101156    -0.16400
C1004       C  0.29776177  0.96055615  0.27038413    -0.14400
H1005       H  0.30034892  0.93974347  0.30595561     0.21000
H1006       H  0.34475646  0.91862571  0.25047517     0.17000
H1007       H  0.35684994  0.89033889  0.27538723     0.19500
H1008       H  0.28688783  0.96728109  0.28008406     0.12900
C1009       C  0.42480731  0.81834452  0.29705335     0.16700
C1010       C  0.43922625  0.80378376  0.29362576    -0.32300
C1011       C  0.45218405  0.80663792  0.27760879     0.21100
C1012       C  0.45088284  0.82326784  0.26560161     0.03300
C1013       C  0.43652937  0.83784823  0.26911842    -0.22000
C1014       C  0.42354070  0.83495702  0.28509452     0.12500
S1015       S  0.40740625  0.81745339  0.31533313    -0.05700
C1016       C  0.39804003  0.83979849  0.30685628    -0.09200
C1017       C  0.40841094  0.84731754  0.29063562    -0.25800
S1018       S  0.46776137  0.82388804  0.24676985    -0.03000
C1019       C  0.47671460  0.80148660  0.25513217    -0.16400
C1020       C  0.46700675  0.79406854  0.27168195    -0.14400
H1021       H  0.44019632  0.79073889  0.30292716     0.21000
H1022       H  0.43542978  0.85080739  0.25971241     0.17000
H1023       H  0.40525579  0.86103580  0.28300772     0.19500
H1024       H  0.47051476  0.78017246  0.27890558     0.12900
C1025       C  0.32650664  0.83305353  0.38884009     0.16700
C1026       C  0.31378356  0.83145593  0.40513524    -0.32300
C1027       C  0.31363681  0.81347114  0.41549646     0.21100
C1028       C  0.32578122  0.79780239  0.41010462     0.03300
C1029       C  0.33851367  0.79941059  0.39374603    -0.22000
C1030       C  0.33848035  0.81736964  0.38321550     0.12500
S1031       S  0.32838126  0.85342100  0.37405145    -0.05700
C1032       C  0.34541104  0.84072531  0.35975372    -0.09200
C1033       C  0.34930793  0.82162379  0.36656250    -0.25800
S1034       S  0.32308042  0.77713499  0.42454788    -0.03000
C1035       C  0.30516302  0.78970892  0.43770620    -0.16400
C1036       C  0.30176800  0.80890440  0.43126308    -0.14400
H1037       H  0.30420658  0.84360775  0.40938827     0.21000
H1038       H  0.34783527  0.78714032  0.38927396     0.17000
H1039       H  0.35909114  0.81106181  0.35951965     0.19500
H1040       H  0.29094255  0.81891450  0.43760436     0.12900
C1041       C  0.21083332  0.94452880  0.18845346     0.16700
C1042       C  0.19647076  0.92946993  0.18713277    -0.32300
C1043       C  0.19482378  0.91920258  0.16911050     0.21100
C1044       C  0.20659337  0.92408428  0.15301525     0.03300
C1045       C  0.22085200  0.93920788  0.15426586    -0.22000
C1046       C  0.22286540  0.94910355  0.17242056     0.12500
S1047       S  0.21586377  0.95802994  0.20927825    -0.05700
C1048       C  0.23467050  0.96966423  0.19638330    -0.09200
C1049       C  0.23662525  0.96345467  0.17689332    -0.25800
S1050       S  0.20305128  0.90933760  0.13286763    -0.03000
C1051       C  0.18585915  0.89576050  0.14631711    -0.16400
C1052       C  0.18286567  0.90309121  0.16538420    -0.14400
H1053       H  0.18737381  0.92555199  0.19977203     0.21000
H1054       H  0.23037000  0.94269725  0.14181102     0.17000
H1055       H  0.24763991  0.96901432  0.16659842     0.19500
H1056       H  0.17328086  0.89650374  0.17643651     0.12900
C1057       C  0.32996761  0.10238457  0.29136123     0.16700
C1058       C  0.31755741  0.08571383  0.29037165    -0.32300
C1059       C  0.31667092  0.07538730  0.27237097     0.21100
C1060       C  0.32802679  0.08106025  0.25619769     0.03300
C1061       C  0.34057997  0.09767516  0.25725465    -0.22000
C1062       C  0.34108935  0.10830594  0.27514742     0.12500
S1063       S  0.33196851  0.11763785  0.31138606    -0.05700
C1064       C  0.34774049  0.13262350  0.29778294    -0.09200
C1065       C  0.35132517  0.12557293  0.27870987    -0.25800
S1066       S  0.32426247  0.06691425  0.23550170    -0.03000
C1067       C  0.30684841  0.05354869  0.24866163    -0.16400
C1068       C  0.30448512  0.05964974  0.26813524    -0.14400
H1069       H  0.30852515  0.08133682  0.30290762     0.21000
H1070       H  0.34913451  0.10243206  0.24452592     0.17000
H1071       H  0.36026271  0.13299653  0.26763821     0.19500
H1072       H  0.29404703  0.05320866  0.27851927     0.12900
C1073       C  0.42441964  0.19760534  0.27299727     0.16700
C1074       C  0.43932076  0.20004586  0.25876460    -0.32300
C1075       C  0.45256419  0.21587167  0.26122695     0.21100
C1076       C  0.45108423  0.22876267  0.27715585     0.03300
C1077       C  0.43618477  0.22622530  0.29150903    -0.22000
C1078       C  0.42288375  0.21031404  0.28902313     0.12500
S1079       S  0.40694224  0.17940788  0.27240900    -0.05700
C1080       C  0.39716699  0.18867745  0.29421502    -0.09200
C1081       C  0.40735018  0.20529479  0.30127451    -0.25800
S1082       S  0.46846842  0.24728870  0.27710229    -0.03000
C1083       C  0.47776922  0.23746219  0.25541132    -0.16400
C1084       C  0.46784862  0.22072345  0.24877200    -0.14400
H1085       H  0.44048650  0.19007246  0.24624606     0.21000
H1086       H  0.43495768  0.23624531  0.30398089     0.17000
H1087       H  0.40388999  0.21330583  0.31470271     0.19500
H1088       H  0.47147031  0.21264993  0.23538627     0.12900
C1089       C  0.32487478  0.22675530  0.40095056     0.16700
C1090       C  0.34034376  0.22319807  0.38749234    -0.32300
C1091       C  0.33699623  0.20920922  0.37245477     0.21100
C1092       C  0.31903645  0.19929254  0.37089793     0.03300
C1093       C  0.30361047  0.20275844  0.38440148    -0.22000
C1094       C  0.30697457  0.21665839  0.39948404     0.12500
S1095       S  0.32582143  0.24344813  0.41991644    -0.05700
C1096       C  0.30188969  0.23666163  0.42607109    -0.09200
C1097       C  0.29375254  0.22217518  0.41394849    -0.25800
S1098       S  0.31787659  0.18294452  0.35171154    -0.03000
C1099       C  0.34202503  0.18925061  0.34558948    -0.16400
C1100       C  0.35023552  0.20354697  0.35804463    -0.14400
H1101       H  0.35434825  0.23102964  0.38866325     0.21000
H1102       H  0.28959362  0.19495600  0.38319577     0.17000
H1103       H  0.27883885  0.21631793  0.41536897     0.19500
H1104       H  0.36521517  0.20927346  0.35699107     0.12900
C1105       C  0.61705786  0.21749141  0.30029603     0.16700
C1106       C  0.60373333  0.23249379  0.29497928    -0.32300
C1107       C  0.58997256  0.22830136  0.27996878     0.21100
C1108       C  0.58944121  0.20997671  0.27066527     0.03300
C1109       C  0.60264039  0.19488112  0.27617492    -0.22000
C1110       C  0.61647388  0.19911828  0.29116827     0.12500
S1111       S  0.63532825  0.21993550  0.31756744    -0.05700
C1112       C  0.64257137  0.19584805  0.31256921    -0.09200
C1113       C  0.63089202  0.18661195  0.29819927    -0.25800
S1114       S  0.57210232  0.20817352  0.25225352    -0.03000
C1115       C  0.56544013  0.23234033  0.25724791    -0.16400
C1116       C  0.57617293  0.24113836  0.27242804    -0.14400
H1117       H  0.60425285  0.24690496  0.30204405     0.21000
H1118       H  0.60234623  0.18057600  0.26888964     0.17000
H1119       H  0.63271707  0.17159219  0.29292170     0.19500
H1120       H  0.57426290  0.25627990  0.27741596     0.12900
C1121       C  0.70674027  0.22157873  0.38954024     0.16700
C1122       C  0.71116964  0.23721375  0.40247765    -0.32300
C1123       C  0.72479965  0.23357557  0.41771750     0.21100
C1124       C  0.73374196  0.21520993  0.41994395     0.03300
C1125       C  0.72915662  0.19949107  0.40708387    -0.22000
C1126       C  0.71544240  0.20313787  0.39184824     0.12500
S1127       S  0.69079306  0.22315114  0.37002979    -0.05700
C1128       C  0.69566985  0.19855756  0.36474336    -0.09200
C1129       C  0.70912430  0.18985563  0.37776671    -0.25800
S1130       S  0.75041180  0.21409579  0.43899118    -0.03000
C1131       C  0.74507345  0.23857794  0.44411141    -0.16400
C1132       C  0.73112026  0.24698576  0.43161953    -0.14400
H1133       H  0.70435575  0.25163002  0.40068028     0.21000
H1134       H  0.73607569  0.18511302  0.40878486     0.17000
H1135       H  0.71398096  0.17458587  0.37720584     0.19500
H1136       H  0.72615171  0.26222658  0.43242138     0.12900
C1137       C  0.30600891  0.58876229  0.16815506     0.16700
C1138       C  0.31044665  0.60230291  0.15294463    -0.32300
C1139       C  0.32547954  0.61637564  0.15650687     0.21100
C1140       C  0.33559631  0.61685530  0.17434664     0.03300
C1141       C  0.33134897  0.60324008  0.18941114    -0.22000
C1142       C  0.31637227  0.58924369  0.18588758     0.12500
S1143       S  0.28786711  0.57094042  0.16724959    -0.05700
C1144       C  0.29450889  0.56404144  0.19095783    -0.09200
C1145       C  0.30995228  0.57507321  0.19892336    -0.25800
S1146       S  0.35290429  0.63517747  0.17605942    -0.03000
C1147       C  0.34671000  0.64259973  0.15232881    -0.16400
C1148       C  0.33182452  0.63098618  0.14377312    -0.14400
H1149       H  0.30240801  0.60202355  0.13905846     0.21000
H1150       H  0.33926457  0.60365526  0.20336834     0.17000
H1151       H  0.31595149  0.57307445  0.21367180     0.19500
H1152       H  0.32588589  0.63288257  0.12901918     0.12900
C1153       C  0.42921348  0.70226687  0.17227388     0.16700
C1154       C  0.44485547  0.70429638  0.18575424    -0.32300
C1155       C  0.45617901  0.72171195  0.18487820     0.21100
C1156       C  0.45224480  0.73645771  0.17112544     0.03300
C1157       C  0.43651778  0.73443340  0.15765098    -0.22000
C1158       C  0.42509055  0.71700662  0.15862695     0.12500
S1159       S  0.41365477  0.68237152  0.17117200    -0.05700
C1160       C  0.40112147  0.69388072  0.15203284    -0.09200
C1161       C  0.40899984  0.71238873  0.14707229    -0.25800
S1162       S  0.46761887  0.75659847  0.17280158    -0.03000
C1163       C  0.47925281  0.74505399  0.19239389    -0.16400
C1164       C  0.47162672  0.72655160  0.19709654    -0.14400
H1165       H  0.44796589  0.69286127  0.19657302     0.21000
H1166       H  0.43323724  0.74597647  0.14699916     0.17000
H1167       H  0.40323961  0.72231315  0.13590424     0.19500
H1168       H  0.47687737  0.71726138  0.20907982     0.12900
C1169       C  0.62157168  0.33063612  0.17662531     0.16700
C1170       C  0.60607180  0.32819046  0.19016764    -0.32300
C1171       C  0.59446638  0.31104279  0.18851693     0.21100
C1172       C  0.59811802  0.29687183  0.17409493     0.03300
C1173       C  0.61378350  0.29927272  0.16062661    -0.22000
C1174       C  0.62537361  0.31652288  0.16224445     0.12500
S1175       S  0.63701913  0.35055340  0.17602113    -0.05700
C1176       C  0.64907746  0.33994961  0.15603812    -0.09200
C1177       C  0.64111181  0.32168051  0.15045424    -0.25800
S1178       S  0.58208862  0.27719666  0.17455901    -0.03000
C1179       C  0.57042340  0.28826660  0.19439947    -0.16400
C1180       C  0.57866210  0.30617322  0.20021952    -0.14400
H1181       H  0.60310784  0.33923534  0.20142815     0.21000
H1182       H  0.61673031  0.28826427  0.14933039     0.17000
H1183       H  0.64635793  0.31239038  0.13852470     0.19500
H1184       H  0.57337197  0.31517405  0.21240651     0.12900
C1185       C  0.72090990  0.42180248  0.16488777     0.16700
C1186       C  0.73480389  0.43693706  0.16791912    -0.32300
C1187       C  0.73353065  0.44764407  0.18563046     0.21100
C1188       C  0.71898031  0.44364096  0.19961704     0.03300
C1189       C  0.70511525  0.42848528  0.19656061    -0.22000
C1190       C  0.70651484  0.41765753  0.17891551     0.12500
S1191       S  0.72022903  0.40677410  0.14468659    -0.05700
C1192       C  0.70034063  0.39438128  0.15523625    -0.09200
C1193       C  0.69472786  0.40206037  0.17355037    -0.25800
S1194       S  0.71997537  0.45830878  0.22015604    -0.03000
C1195       C  0.74035495  0.46977170  0.20983786    -0.16400
C1196       C  0.74589948  0.46260644  0.19144986    -0.14400
H1197       H  0.74621221  0.44009491  0.15705827     0.21000
H1198       H  0.69384891  0.42516133  0.20751975     0.17000
H1199       H  0.68297271  0.39655536  0.18294542     0.19500
H1200       H  0.75834103  0.46802403  0.18282936     0.12900
C1201       C  0.82227318  0.22286602  0.04532507     0.16700
C1202       C  0.83793831  0.21781616  0.05797918    -0.32300
C1203       C  0.83349957  0.20599816  0.07447422     0.21100
C1204       C  0.81436416  0.19938158  0.07816428     0.03300
C1205       C  0.79872690  0.20419520  0.06535024    -0.22000
C1206       C  0.80314792  0.21606529  0.04886381     0.12500
S1207       S  0.82441150  0.23800604  0.02520592    -0.05700
C1208       C  0.79930133  0.23499981  0.02137991    -0.09200
C1209       C  0.78990667  0.22280425  0.03500021    -0.25800
S1210       S  0.81205347  0.18550624  0.09916730    -0.03000
C1211       C  0.83720654  0.18862251  0.10310444    -0.16400
C1212       C  0.84665204  0.19985397  0.08864484    -0.14400
H1213       H  0.85287574  0.22312751  0.05526120     0.21000
H1214       H  0.78374433  0.19910609  0.06822568     0.17000
H1215       H  0.77414535  0.21961020  0.03513932     0.19500
H1216       H  0.86237319  0.20319767  0.08831672     0.12900
C1217       C  0.71637936  0.30483560  0.04657535     0.16700
C1218       C  0.70143508  0.30825195  0.06057412    -0.32300
C1219       C  0.70487694  0.32301558  0.07478687     0.21100
C1220       C  0.72232522  0.33390554  0.07497843     0.03300
C1221       C  0.73714072  0.33069829  0.06084908    -0.22000
C1222       C  0.73376041  0.31590818  0.04671402     0.12500
S1223       S  0.71554347  0.28699117  0.02870880    -0.05700
C1224       C  0.73885255  0.29460021  0.02137994    -0.09200
C1225       C  0.74666779  0.31019403  0.03219813    -0.25800
S1226       S  0.72396243  0.35061088  0.09373191    -0.03000
C1227       C  0.70074304  0.34300963  0.10164536    -0.16400
C1228       C  0.69238421  0.32822483  0.08988904    -0.14400
H1229       H  0.68788064  0.29958238  0.06058458     0.21000
H1230       H  0.75082901  0.33915347  0.06104857     0.17000
H1231       H  0.76120485  0.31668502  0.02987549     0.19500
H1232       H  0.67796220  0.32149938  0.09203583     0.12900
C1233       C  0.70205176  0.31870488  0.88231854     0.16700
C1234       C  0.70404728  0.30379159  0.89664555    -0.32300
C1235       C  0.72019848  0.30510935  0.90966973     0.21100
C1236       C  0.73370248  0.32062206  0.90848065     0.03300
C1237       C  0.73169468  0.33549988  0.89412378    -0.22000
C1238       C  0.71556015  0.33414316  0.88106913     0.12500
S1239       S  0.68354206  0.31978684  0.86524268    -0.05700
C1240       C  0.69393909  0.34143387  0.85601583    -0.09200
C1241       C  0.71109635  0.34715190  0.86608867    -0.25800
S1242       S  0.75239386  0.31949508  0.92544050    -0.03000
C1243       C  0.74203266  0.29779407  0.93418004    -0.16400
C1244       C  0.72488198  0.29193170  0.92442944    -0.14400
H1245       H  0.69350790  0.29167440  0.89755723     0.21000
H1246       H  0.74228178  0.34756959  0.89313883     0.17000
H1247       H  0.72004955  0.36007017  0.86287755     0.19500
H1248       H  0.71646300  0.27864558  0.92777378     0.12900
C1249       C  0.61235376  0.33823571  0.78366366     0.16700
C1250       C  0.59721073  0.33543983  0.76963141    -0.32300
C1251       C  0.58436594  0.31919433  0.77231109     0.21100
C1252       C  0.58642145  0.30646855  0.78830895     0.03300
C1253       C  0.60136024  0.30943084  0.80238467    -0.22000
C1254       C  0.61425464  0.32551491  0.79961252     0.12500
S1255       S  0.63004115  0.35642784  0.78287324    -0.05700
C1256       C  0.64034300  0.34671812  0.80428911    -0.09200
C1257       C  0.62996638  0.33031979  0.81148317    -0.25800
S1258       S  0.57000550  0.28718629  0.78862450    -0.03000
C1259       C  0.56019353  0.29622010  0.76689413    -0.16400
C1260       C  0.56922851  0.31342168  0.75996870    -0.14400
H1261       H  0.59572156  0.34525837  0.75703074     0.21000
H1262       H  0.60309102  0.29940278  0.81479253     0.17000
H1263       H  0.63341556  0.32199881  0.82469920     0.19500
H1264       H  0.56526972  0.32099597  0.74639240     0.12900
C1265       C  0.70872227  0.45699292  0.77309629     0.16700
C1266       C  0.69353920  0.44317163  0.77673778    -0.32300
C1267       C  0.69755908  0.42767538  0.79005583     0.21100
C1268       C  0.71579135  0.42610172  0.79936975     0.03300
C1269       C  0.73082590  0.44006661  0.79601133    -0.22000
C1270       C  0.72685522  0.45547308  0.78268107     0.12500
S1271       S  0.70738421  0.47618928  0.75657615    -0.05700
C1272       C  0.73147794  0.48222660  0.76279809    -0.09200
C1273       C  0.73986476  0.47000158  0.77699883    -0.25800
S1274       S  0.71803553  0.40591641  0.81434472    -0.03000
C1275       C  0.69400726  0.39923915  0.80818337    -0.16400
C1276       C  0.68496708  0.41247030  0.79512961    -0.14400
H1277       H  0.67937038  0.44422452  0.76924343     0.21000
H1278       H  0.74512699  0.43878668  0.80321881     0.17000
H1279       H  0.75494309  0.47128796  0.78242731     0.19500
H1280       H  0.66999325  0.41124435  0.78950029     0.12900
C1281       C  0.84227140  0.21922443  0.88302304     0.16700
C1282       C  0.83802537  0.23440086  0.89651212    -0.32300
C1283       C  0.82258947  0.23112071  0.91001385     0.21100
C1284       C  0.81182723  0.21355559  0.91003645     0.03300
C1285       C  0.81620351  0.19833349  0.89663899    -0.22000
C1286       C  0.83167843  0.20160030  0.88316190     0.12500
S1287       S  0.86015039  0.22043801  0.86531087    -0.05700
C1288       C  0.85348772  0.19677742  0.85786125    -0.09200
C1289       C  0.83805579  0.18864493  0.86890410    -0.25800
S1290       S  0.79332817  0.21263941  0.92721594    -0.03000
C1291       C  0.80026625  0.23611335  0.93455095    -0.16400
C1292       C  0.81608862  0.24411941  0.92415050    -0.14400
H1293       H  0.84631087  0.24818438  0.89641439     0.21000
H1294       H  0.80782974  0.18460491  0.89663477     0.17000
H1295       H  0.83175599  0.17402471  0.86685977     0.19500
H1296       H  0.82229643  0.25874705  0.92660272     0.12900
C1297       C  0.09334715  0.24622400  0.78756135     0.16700
C1298       C  0.10909746  0.24419086  0.80099868    -0.32300
C1299       C  0.11866856  0.22573691  0.80185287     0.21100
C1300       C  0.11260929  0.21000547  0.79010383     0.03300
C1301       C  0.09691566  0.21201357  0.77672396    -0.22000
C1302       C  0.08759521  0.23048608  0.77562976     0.12500
S1303       S  0.08007542  0.26745592  0.78377676    -0.05700
C1304       C  0.06697060  0.25499732  0.76569546    -0.09200
C1305       C  0.07254868  0.23544045  0.76302583    -0.25800
S1306       S  0.12631177  0.18907138  0.79283309    -0.03000
C1307       C  0.14089749  0.20159404  0.80979211    -0.16400
C1308       C  0.13486502  0.22102891  0.81320966    -0.14400
H1309       H  0.11387933  0.25651086  0.81012678     0.21000
H1310       H  0.09240131  0.19980490  0.76730925     0.17000
H1311       H  0.06598862  0.22538112  0.75234963     0.19500
H1312       H  0.14230173  0.23149872  0.82284170     0.12900
C1313       C  0.09009773  0.33075051  0.68585751     0.16700
C1314       C  0.10314595  0.34574132  0.67973220    -0.32300
C1315       C  0.11869348  0.34034941  0.66704708     0.21100
C1316       C  0.12111329  0.32095064  0.66072327     0.03300
C1317       C  0.10796004  0.30602091  0.66665254    -0.22000
C1318       C  0.09242822  0.31139719  0.67930389     0.12500
S1319       S  0.07084038  0.33399463  0.70193316    -0.05700
C1320       C  0.06584610  0.30904151  0.69962607    -0.09200
C1321       C  0.07842029  0.29890392  0.68699718    -0.25800
S1322       S  0.14100020  0.31734597  0.64563336    -0.03000
C1323       C  0.14618572  0.34233854  0.64767333    -0.16400
C1324       C  0.13299230  0.35270890  0.65959302    -0.14400
H1325       H  0.10139258  0.36087463  0.68479751     0.21000
H1326       H  0.10984130  0.29084988  0.66174605     0.17000
H1327       H  0.07770942  0.28312426  0.68406702     0.19500
H1328       H  0.13360097  0.36849028  0.66248058     0.12900
C1329       C  0.93652472  0.20492365  0.78847911     0.16700
C1330       C  0.95265111  0.20746108  0.77566565    -0.32300
C1331       C  0.96146393  0.22627872  0.77490062     0.21100
C1332       C  0.95481190  0.24179221  0.78662574     0.03300
C1333       C  0.93871989  0.23921774  0.79947315    -0.22000
C1334       C  0.92968400  0.22048736  0.79996696     0.12500
S1335       S  0.92318639  0.18356957  0.79086892    -0.05700
C1336       C  0.90792466  0.19573526  0.80743378    -0.09200
C1337       C  0.91331820  0.21538098  0.81078267    -0.25800
S1338       S  0.96726092  0.26358424  0.78321995    -0.03000
C1339       C  0.98126052  0.25174410  0.76549760    -0.16400
C1340       C  0.97664266  0.23191579  0.76271040    -0.14400
H1341       H  0.95783055  0.19542794  0.76639945     0.21000
H1342       H  0.93324070  0.25137284  0.80840207     0.17000
H1343       H  0.90539881  0.22576952  0.82006471     0.19500
H1344       H  0.98381489  0.22222312  0.75212074     0.12900
C1345       C  0.95121631  0.31367058  0.67828488     0.16700
C1346       C  0.93496839  0.31506149  0.66537051    -0.32300
C1347       C  0.92482618  0.33320619  0.66458848     0.21100
C1348       C  0.93077718  0.34927433  0.67593087     0.03300
C1349       C  0.94697989  0.34790117  0.68882016    -0.22000
C1350       C  0.95690898  0.32971773  0.68982818     0.12500
S1351       S  0.96520292  0.29287192  0.68185175    -0.05700
C1352       C  0.97860085  0.30590275  0.69930485    -0.09200
C1353       C  0.97253933  0.32532948  0.70197255    -0.25800
S1354       S  0.91625842  0.36972120  0.67339616    -0.03000
C1355       C  0.90150969  0.35648492  0.65710908    -0.16400
C1356       C  0.90810505  0.33723164  0.65372921    -0.14400
H1357       H  0.93024686  0.30247648  0.65657431     0.21000
H1358       H  0.95142854  0.36035769  0.69793762     0.17000
H1359       H  0.97914546  0.33566857  0.71234882     0.19500
H1360       H  0.90067075  0.32637775  0.64452487     0.12900
C1361       C  0.82371656  0.34507166  0.58038243     0.16700
C1362       C  0.80902489  0.34183783  0.56597059    -0.32300
C1363       C  0.81077981  0.32490109  0.55399171     0.21100
C1364       C  0.82658701  0.31194724  0.55615095     0.03300
C1365       C  0.84128461  0.31526277  0.57046572    -0.22000
C1366       C  0.83939114  0.33203672  0.58257961     0.12500
S1367       S  0.82395235  0.36421197  0.59688979    -0.05700
C1368       C  0.84537872  0.35451420  0.60723952    -0.09200
C1369       C  0.85179669  0.33729223  0.59781634    -0.25800
S1370       S  0.82594096  0.29206551  0.54056632    -0.03000
C1371       C  0.80401956  0.30111244  0.53104622    -0.16400
C1372       C  0.79774521  0.31877075  0.53955319    -0.14400
H1373       H  0.79662621  0.35190025  0.56437876     0.21000
H1374       H  0.85351094  0.30502846  0.57229050     0.17000
H1375       H  0.86454688  0.32854810  0.60198900     0.19500
H1376       H  0.78428813  0.32655919  0.53556506     0.12900
C1377       C  0.83438598  0.42918236  0.68641631     0.16700
C1378       C  0.83068494  0.44277267  0.70170110    -0.32300
C1379       C  0.81501500  0.45618664  0.69905250     0.21100
C1380       C  0.80353620  0.45600791  0.68200108     0.03300
C1381       C  0.80733408  0.44250556  0.66671992    -0.22000
C1382       C  0.82301633  0.42915454  0.66934045     0.12500
S1383       S  0.85257988  0.41167811  0.68667348    -0.05700
C1384       C  0.84492996  0.40412350  0.66335591    -0.09200
C1385       C  0.82898201  0.41500064  0.65608471    -0.25800
S1386       S  0.78504502  0.47322028  0.68166426    -0.03000
C1387       C  0.79289912  0.48091121  0.70469949    -0.16400
C1388       C  0.80901379  0.47052038  0.71214749    -0.14400
H1389       H  0.83959814  0.44287454  0.71504878     0.21000
H1390       H  0.79842155  0.44238721  0.65337141     0.17000
H1391       H  0.82209004  0.41305486  0.64175530     0.38700
H1392       H  0.81586817  0.47321385  0.72640940     0.12900
C1393       C  0.19718882  0.82004618  0.06937993     0.16700
C1394       C  0.19973052  0.80703251  0.05339678    -0.32300
C1395       C  0.21771526  0.80803681  0.04297088     0.21100
C1396       C  0.23239127  0.82157806  0.04802407     0.03300
C1397       C  0.22982312  0.83459089  0.06397650    -0.22000
C1398       C  0.21195629  0.83337588  0.07456379     0.12500
S1399       S  0.17670510  0.82091388  0.08421890    -0.05700
C1400       C  0.18812392  0.83946713  0.09777139    -0.09200
C1401       C  0.20697240  0.84440144  0.09081772    -0.25800
S1402       S  0.25328431  0.82019866  0.03381636    -0.03000
C1403       C  0.24229506  0.80088412  0.02116943    -0.16400
C1404       C  0.22331270  0.79611105  0.02753720    -0.14400
H1405       H  0.18832524  0.79641101  0.04944312     0.21000
H1406       H  0.24134422  0.84501290  0.06812198     0.17000
H1407       H  0.21686953  0.85520465  0.09735789     0.19500
H1408       H  0.21424145  0.78432113  0.02143990     0.12900
C1409       C  0.31108441  0.71214315  0.04382095     0.16700
C1410       C  0.31532936  0.69631665  0.05665165    -0.32300
C1411       C  0.32986688  0.69943096  0.07126453     0.21100
C1412       C  0.33983434  0.71735712  0.07277616     0.03300
C1413       C  0.33593452  0.73295066  0.05974047    -0.22000
C1414       C  0.32130483  0.72995154  0.04536842     0.12500
S1415       S  0.29306704  0.71207225  0.02596805    -0.05700
C1416       C  0.29949344  0.73627538  0.02067462    -0.09200
C1417       C  0.31487705  0.74373979  0.03203964    -0.25800
S1418       S  0.35613080  0.71872149  0.09190073    -0.03000
C1419       C  0.34967019  0.69474012  0.09827263    -0.16400
C1420       C  0.33553059  0.68631096  0.08575066    -0.14400
H1421       H  0.30731955  0.68241268  0.05562461     0.21000
H1422       H  0.34363467  0.74700825  0.06106184     0.17000
H1423       H  0.32074774  0.75866916  0.03093582     0.19500
H1424       H  0.32953553  0.67147805  0.08710692     0.12900
C1425       C  0.31805084  0.69990617  0.88126487     0.16700
C1426       C  0.30344826  0.70296729  0.89571042    -0.32300
C1427       C  0.30699133  0.71776393  0.90987098     0.21100
C1428       C  0.32437952  0.72882646  0.90979396     0.03300
C1429       C  0.33910059  0.72549294  0.89558865    -0.22000
C1430       C  0.33544409  0.71088445  0.88130432     0.12500
S1431       S  0.31617540  0.68355136  0.86211611    -0.05700
C1432       C  0.33911850  0.69163067  0.85385947    -0.09200
C1433       C  0.34762992  0.70611000  0.86585599    -0.25800
S1434       S  0.32545227  0.74681905  0.92746489    -0.03000
C1435       C  0.30215758  0.73946843  0.93499618    -0.16400
C1436       C  0.29420318  0.72370944  0.92445085    -0.14400
H1437       H  0.28974376  0.69454155  0.89562479     0.21000
H1438       H  0.35259619  0.73425079  0.89537250     0.17000
H1439       H  0.36197053  0.71297645  0.86358600     0.19500
H1440       H  0.27962785  0.71736386  0.92691859     0.12900
C1441       C  0.33388361  0.61360304  0.77765235     0.16700
C1442       C  0.33124219  0.59910235  0.76300445    -0.32300
C1443       C  0.31549252  0.58567824  0.76543950     0.21100
C1444       C  0.30306665  0.58655473  0.78179306     0.03300
C1445       C  0.30579978  0.60097562  0.79644487    -0.22000
C1446       C  0.32142271  0.61448400  0.79391080     0.12500
S1447       S  0.35158600  0.63167729  0.77720025    -0.05700
C1448       C  0.34209429  0.64082321  0.79921171    -0.09200
C1449       C  0.32599002  0.62989586  0.80626844    -0.25800
S1450       S  0.28450621  0.56933880  0.78183406    -0.03000
C1451       C  0.29344406  0.56091665  0.75947813    -0.16400
C1452       C  0.31006783  0.57092356  0.75256540    -0.14400
H1453       H  0.34084268  0.59849198  0.75015584     0.21000
H1454       H  0.29599316  0.60181438  0.80912625     0.17000
H1455       H  0.31756099  0.63294682  0.81951846     0.19500
H1456       H  0.31755122  0.56780988  0.73871649     0.12900
C1457       C  0.41583304  0.72182981  0.79153979     0.16700
C1458       C  0.43051652  0.73644026  0.78997996    -0.32300
C1459       C  0.44274411  0.73602596  0.77323097     0.21100
C1460       C  0.44046180  0.72176252  0.75860703     0.03300
C1461       C  0.42565159  0.70718584  0.76014298    -0.22000
C1462       C  0.41342696  0.70757737  0.77698146     0.12500
S1463       S  0.39980208  0.71967679  0.81084643    -0.05700
C1464       C  0.38940636  0.69918785  0.79936564    -0.09200
C1465       C  0.39831898  0.69461546  0.78128967    -0.25800
S1466       S  0.45697479  0.72385972  0.73950086    -0.03000
C1467       C  0.46701365  0.74414869  0.75142874    -0.16400
C1468       C  0.45790881  0.74890218  0.76919296    -0.14400
H1469       H  0.43239512  0.74758993  0.80137948     0.21000
H1470       H  0.42379786  0.69599775  0.74878089     0.17000
H1471       H  0.39418667  0.68255860  0.77157899     0.19500
H1472       H  0.46214245  0.76117057  0.77866338     0.12900
C1473       C  0.20373908  0.82628949  0.88525910     0.16700
C1474       C  0.20488498  0.81274432  0.90094729    -0.32300
C1475       C  0.22266694  0.81203935  0.91169776     0.21100
C1476       C  0.23849977  0.82442986  0.90719261     0.03300
C1477       C  0.23734644  0.83792932  0.89148109    -0.22000
C1478       C  0.21964602  0.83847592  0.88059875     0.12500
S1479       S  0.18372901  0.82907192  0.87011197    -0.05700
C1480       C  0.19696073  0.84675503  0.85703306    -0.09200
C1481       C  0.21590868  0.85018851  0.86446958    -0.25800
S1482       S  0.25879945  0.82127173  0.92192702    -0.03000
C1483       C  0.24592958  0.80286593  0.93413463    -0.16400
C1484       C  0.22687213  0.79954717  0.92712293    -0.14400
H1485       H  0.19255107  0.80303776  0.90447367     0.21000
H1486       H  0.24977136  0.84745197  0.88777887     0.17000
H1487       H  0.22671675  0.86028359  0.85820114     0.19500
H1488       H  0.21670330  0.78851455  0.93291229     0.12900
C1489       C  0.20434322  0.12560252  0.78248754     0.16700
C1490       C  0.20777931  0.11232714  0.76689315    -0.32300
C1491       C  0.22176982  0.09729765  0.76996585     0.21100
C1492       C  0.23190738  0.09560837  0.78776486     0.03300
C1493       C  0.22830358  0.10878220  0.80342439    -0.22000
C1494       C  0.21429207  0.12381723  0.80034332     0.12500
S1495       S  0.18819137  0.14491637  0.78157232    -0.05700
C1496       C  0.19465758  0.15082445  0.80568477    -0.09200
C1497       C  0.20879986  0.13813015  0.81371689    -0.25800
S1498       S  0.24882432  0.07685329  0.78831677    -0.03000
C1499       C  0.24210113  0.07112395  0.76434830    -0.16400
C1500       C  0.22744472  0.08317874  0.75649081    -0.14400
H1501       H  0.19998788  0.11373963  0.75293649     0.21000
H1502       H  0.23620273  0.10747448  0.81732970     0.17000
H1503       H  0.21466690  0.13899764  0.82860367     0.19500
H1504       H  0.22159794  0.08197122  0.74159513     0.12900
C1505       C  0.32499703  0.09603886  0.69311491     0.16700
C1506       C  0.34034289  0.10938793  0.68879539    -0.32300
C1507       C  0.33767463  0.12225597  0.67270640     0.21100
C1508       C  0.32047831  0.12200962  0.66149916     0.03300
C1509       C  0.30512224  0.10860593  0.66575429    -0.22000
C1510       C  0.30785574  0.09561006  0.68175315     0.12500
S1511       S  0.32538373  0.07921504  0.71201318    -0.05700
C1512       C  0.30227502  0.07134661  0.70440848    -0.09200
C1513       C  0.29477673  0.08140947  0.68812645    -0.25800
S1514       S  0.32023646  0.13890773  0.64269166    -0.03000
C1515       C  0.34373458  0.14646763  0.64984622    -0.16400
C1516       C  0.35104436  0.13603721  0.66609111    -0.14400
H1517       H  0.35380423  0.10969648  0.69755514     0.21000
H1518       H  0.29169035  0.10826621  0.65695318     0.17000
H1519       H  0.28046961  0.07855633  0.68137534     0.19500
H1520       H  0.36550144  0.13798902  0.67275523     0.12900
C1521       C  0.21647095  0.95783228  0.76996690     0.16700
C1522       C  0.20174651  0.94330173  0.77228406    -0.32300
C1523       C  0.20413254  0.92951932  0.78765006     0.21100
C1524       C  0.22032470  0.93029376  0.80024154     0.03300
C1525       C  0.23493888  0.94497091  0.79810694    -0.22000
C1526       C  0.23266447  0.95863632  0.78262702     0.12500
S1527       S  0.21681667  0.97521430  0.75161794    -0.05700
C1528       C  0.23906662  0.98364435  0.76104203    -0.09200
C1529       C  0.24565641  0.97349871  0.77764126    -0.25800
S1530       S  0.22083316  0.91182315  0.81741809    -0.03000
C1531       C  0.19891702  0.90263524  0.80758721    -0.16400
C1532       C  0.19177940  0.91387827  0.79180618    -0.14400
H1533       H  0.18918328  0.94253390  0.76230483     0.21000
H1534       H  0.24770479  0.94548275  0.80784250     0.17000
H1535       H  0.25942397  0.97653142  0.78536328     0.19500
H1536       H  0.17839180  0.91092520  0.78349355     0.12900
C1537       C  0.31982299  0.93373816  0.65985880     0.16700
C1538       C  0.30681845  0.94982358  0.66191965    -0.32300
C1539       C  0.30781056  0.96081579  0.67954564     0.21100
C1540       C  0.32132869  0.95614231  0.69431098     0.03300
C1541       C  0.33429737  0.94008489  0.69223376    -0.22000
C1542       C  0.33312800  0.92897126  0.67473559     0.12500
S1543       S  0.32064458  0.91820884  0.63993398    -0.05700
C1544       C  0.33907510  0.90489758  0.65179057    -0.09200
C1545       C  0.34410827  0.91250703  0.67028695    -0.25800
S1546       S  0.32009738  0.97102258  0.71466953    -0.03000
C1547       C  0.30092800  0.98355284  0.70336413    -0.16400
C1548       C  0.29599997  0.97655707  0.68467459    -0.14400
H1549       H  0.29622803  0.95344389  0.65041727     0.21000
H1550       H  0.34468548  0.93627065  0.70386057     0.17000
H1551       H  0.35487642  0.90619151  0.68033800     0.19500
H1552       H  0.28426099  0.98248285  0.67547267     0.12900
C1553       C  0.31839923  0.83934154  0.57376717     0.16700
C1554       C  0.30653170  0.83677896  0.55691849    -0.32300
C1555       C  0.30695127  0.81821965  0.54756449     0.21100
C1556       C  0.31865764  0.80288386  0.55463038     0.03300
C1557       C  0.33035117  0.80539436  0.57160810    -0.22000
C1558       C  0.32993101  0.82396670  0.58095009     0.12500
S1559       S  0.32034311  0.86081742  0.58697630    -0.05700
C1560       C  0.33699679  0.84905481  0.60246288    -0.09200
C1561       C  0.34046452  0.82934515  0.59743679    -0.25800
S1562       S  0.31721588  0.78156731  0.54104887    -0.03000
C1563       C  0.30050604  0.79339389  0.52579494    -0.16400
C1564       C  0.29642916  0.81283229  0.53106523    -0.14400
H1565       H  0.29744874  0.84874700  0.55129144     0.21000
H1566       H  0.33946258  0.79344126  0.57722379     0.17000
H1567       H  0.35010645  0.81929007  0.60535879     0.19500
H1568       H  0.28620901  0.82247022  0.52330854     0.12900
C1569       C  0.42320964  0.83540234  0.65746298     0.16700
C1570       C  0.43950543  0.82263152  0.65885656    -0.32300
C1571       C  0.44951161  0.82176350  0.67702554     0.21100
C1572       C  0.44382561  0.83339037  0.69298376     0.03300
C1573       C  0.42758615  0.84625606  0.69153440    -0.22000
C1574       C  0.41733541  0.84683144  0.67346292     0.12500
S1575       S  0.40841041  0.83761710  0.63714809    -0.05700
C1576       C  0.39374212  0.85392413  0.65036865    -0.09200
C1577       C  0.40051065  0.85749941  0.66951114    -0.25800
S1578       S  0.45753483  0.82972298  0.71391621    -0.03000
C1579       C  0.47080620  0.81205429  0.70113466    -0.16400
C1580       C  0.46498562  0.80947123  0.68161376    -0.14400
H1581       H  0.44387517  0.81340020  0.64648236     0.21000
H1582       H  0.42285753  0.85506435  0.70408217     0.17000
H1583       H  0.39314857  0.86673802  0.68034818     0.19500
H1584       H  0.47145471  0.79887535  0.67144606     0.12900
C1585       C  0.82396198  0.08522712  0.19775761     0.16700
C1586       C  0.83665602  0.10157810  0.19561984    -0.32300
C1587       C  0.83679913  0.11132138  0.17727163     0.21100
C1588       C  0.82523134  0.10476438  0.16161197     0.03300
C1589       C  0.81269077  0.08829564  0.16366502    -0.22000
C1590       C  0.81213267  0.07889346  0.18216465     0.12500
S1591       S  0.82050145  0.07237607  0.21925354    -0.05700
C1592       C  0.80253775  0.05868900  0.20725639    -0.09200
C1593       C  0.79978937  0.06364892  0.18752678    -0.25800
S1594       S  0.82681308  0.11911193  0.14092079    -0.03000
C1595       C  0.84297535  0.13455316  0.15353620    -0.16400
C1596       C  0.84702095  0.12832710  0.17276199    -0.14400
H1597       H  0.84553617  0.10686813  0.20791362     0.21000
H1598       H  0.80327635  0.08345052  0.15158494     0.17000
H1599       H  0.78894485  0.05685684  0.17779670     0.19500
H1600       H  0.85624896  0.13618152  0.18329176     0.12900
C1601       C  0.71670056  0.11557737  0.30593193     0.16700
C1602       C  0.72971748  0.09946135  0.30432859    -0.32300
C1603       C  0.73018883  0.08920409  0.28625033     0.21100
C1604       C  0.71815859  0.09466560  0.27051284     0.03300
C1605       C  0.70525083  0.11086076  0.27209407    -0.22000
C1606       C  0.70485265  0.12116554  0.29014477     0.12500
S1607       S  0.71399180  0.13001500  0.32649552    -0.05700
C1608       C  0.69673521  0.14402749  0.31372339    -0.09200
C1609       C  0.69346143  0.13741775  0.29444570    -0.25800
S1610       S  0.72068773  0.08013528  0.24995189    -0.03000
C1611       C  0.73827404  0.06662315  0.26261947    -0.16400
C1612       C  0.74185974  0.07318569  0.28177017    -0.14400
H1613       H  0.73908500  0.09512879  0.31661579     0.21000
H1614       H  0.69592336  0.11523993  0.25979217     0.17000
H1615       H  0.68363741  0.14426469  0.28380042     0.19500
H1616       H  0.75234198  0.06650509  0.29192102     0.12900
C1617       C  0.71254762  0.92769761  0.30802331     0.16700
C1618       C  0.72833542  0.94065155  0.30419336    -0.32300
C1619       C  0.72562850  0.95494891  0.28940572     0.21100
C1620       C  0.70798664  0.95637814  0.27891951     0.03300
C1621       C  0.69206013  0.94363043  0.28301951    -0.22000
C1622       C  0.69482020  0.92923728  0.29774814     0.12500
S1623       S  0.71330411  0.90867038  0.32456193    -0.05700
C1624       C  0.68939831  0.90249853  0.31759761    -0.09200
C1625       C  0.68142313  0.91499455  0.30328686    -0.25800
S1626       S  0.70814020  0.97399699  0.26075408    -0.03000
C1627       C  0.73218170  0.97953855  0.26749453    -0.16400
C1628       C  0.73949764  0.96832856  0.28304424    -0.14400
H1629       H  0.74226204  0.93937664  0.31210037     0.21000
H1630       H  0.67829874  0.94458656  0.27478819     0.17000
H1631       H  0.66668895  0.91374953  0.29702860     0.19500
H1632       H  0.75439357  0.96949311  0.28897926     0.12900
C1633       C  0.61291190  0.84065443  0.28605712     0.16700
C1634       C  0.59904489  0.83875303  0.27072017    -0.32300
C1635       C  0.58683778  0.82191733  0.27079531     0.21100
C1636       C  0.58829222  0.80768026  0.28554720     0.03300
C1637       C  0.60216884  0.80962402  0.30089013    -0.22000
C1638       C  0.61446915  0.82642232  0.30074025     0.12500
S1639       S  0.62911010  0.85983953  0.28849008    -0.05700
C1640       C  0.63842848  0.84869168  0.30964325    -0.09200
C1641       C  0.62900950  0.83086351  0.31425702    -0.25800
S1642       S  0.57232697  0.78821669  0.28286188    -0.03000
C1643       C  0.56371681  0.79929225  0.26153483    -0.16400
C1644       C  0.57273243  0.81720049  0.25695674    -0.14400
H1645       H  0.59791244  0.84984225  0.25917411     0.21000
H1646       H  0.60340945  0.79847148  0.31236155     0.17000
H1647       H  0.63243058  0.82140562  0.32670759     0.19500
H1648       H  0.56932489  0.82615689  0.24408741     0.12900
C1649       C  0.69354110  0.82787778  0.39635173     0.16700
C1650       C  0.69629772  0.81363198  0.41126543    -0.32300
C1651       C  0.71367473  0.81495923  0.42272423     0.21100
C1652       C  0.72743087  0.82999381  0.41970912     0.03300
C1653       C  0.72457334  0.84423931  0.40496853    -0.22000
C1654       C  0.70746151  0.84268122  0.39331351     0.12500
S1655       S  0.67419830  0.82840717  0.37997021    -0.05700
C1656       C  0.68511885  0.84874678  0.36866206    -0.09200
C1657       C  0.70283768  0.85453319  0.37760752    -0.25800
S1658       S  0.74787491  0.82877254  0.43450578    -0.03000
C1659       C  0.73806203  0.80753105  0.44472861    -0.16400
C1660       C  0.71969476  0.80199003  0.43716658    -0.14400
H1661       H  0.68565565  0.80178155  0.41350270     0.21000
H1662       H  0.73548217  0.85577281  0.40235937     0.17000
H1663       H  0.71252706  0.86633395  0.37269506     0.19500
H1664       H  0.71143575  0.78894586  0.44165746     0.12900
C1665       C  0.81659554  0.92210491  0.16912720     0.16700
C1666       C  0.80437847  0.93884207  0.17046156    -0.32300
C1667       C  0.80377080  0.94891177  0.18861965     0.21100
C1668       C  0.81496933  0.94272444  0.20469692     0.03300
C1669       C  0.82710634  0.92589925  0.20337925    -0.22000
C1670       C  0.82759834  0.91573704  0.18523496     0.12500
S1671       S  0.81922195  0.90780446  0.14848564    -0.05700
C1672       C  0.83526420  0.89275832  0.16162828    -0.09200
C1673       C  0.83828558  0.89894316  0.18108135    -0.25800
S1674       S  0.81235597  0.95716407  0.22532516    -0.03000
C1675       C  0.79581181  0.97154280  0.21220954    -0.16400
C1676       C  0.79264488  0.96535945  0.19287720    -0.14400
H1677       H  0.79566828  0.94375618  0.15791453     0.21000
H1678       H  0.83575400  0.92093051  0.21594642     0.17000
H1679       H  0.84748359  0.89144587  0.19185399     0.19500
H1680       H  0.78279485  0.97257263  0.18246234     0.12900
C1681       C  0.11488312  0.71657180  0.29173694     0.16700
C1682       C  0.09988019  0.73049252  0.28836478    -0.32300
C1683       C  0.08599579  0.72629056  0.27349313     0.21100
C1684       C  0.08697116  0.70900643  0.26241557     0.03300
C1685       C  0.10192160  0.69497540  0.26593104    -0.22000
C1686       C  0.11584143  0.69920318  0.28085214     0.12500
S1687       S  0.13324159  0.71915378  0.30885909    -0.05700
C1688       C  0.14257404  0.69644121  0.30151138    -0.09200
C1689       C  0.13156916  0.68755779  0.28640960    -0.25800
S1690       S  0.06901244  0.70707771  0.24461320    -0.03000
C1691       C  0.06007683  0.72976210  0.25229426    -0.16400
C1692       C  0.07056608  0.73818465  0.26783846    -0.14400
H1693       H  0.09914716  0.74408786  0.29687183     0.21000
H1694       H  0.10276949  0.68145906  0.25731330     0.17000
H1695       H  0.13461490  0.67328144  0.27980293     0.19500
H1696       H  0.06731114  0.75246078  0.27441787     0.12900
C1697       C  0.10971898  0.82961978  0.17371532     0.16700
C1698       C  0.09535875  0.82642513  0.18841005    -0.32300
C1699       C  0.08224922  0.81043057  0.18587859     0.21100
C1700       C  0.08336751  0.79813242  0.16946765     0.03300
C1701       C  0.09768731  0.80141517  0.15470353    -0.22000
C1702       C  0.11081021  0.81745360  0.15725369     0.12500
S1703       S  0.12703302  0.84809482  0.17414514    -0.05700
C1704       C  0.13607300  0.83956801  0.15172227    -0.09200
C1705       C  0.12575733  0.82305773  0.14458391    -0.25800
S1706       S  0.06637660  0.77924257  0.16946565    -0.03000
C1707       C  0.05765900  0.78804396  0.19182193    -0.16400
C1708       C  0.06749902  0.80477893  0.19870320    -0.14400
H1709       H  0.09450395  0.83592915  0.20129387     0.21000
H1710       H  0.09863071  0.79184348  0.14187785     0.17000
H1711       H  0.12867097  0.81549161  0.13079883     0.19500
H1712       H  0.06426343  0.81222426  0.21253235     0.12900
C1713       C  0.94079866  0.79791545  0.17709895     0.16700
C1714       C  0.92454215  0.80039039  0.16445027    -0.32300
C1715       C  0.91352432  0.81789508  0.16622925     0.21100
C1716       C  0.91844808  0.83237545  0.17990175     0.03300
C1717       C  0.93468297  0.82987171  0.19269718    -0.22000
C1718       C  0.94569273  0.81227989  0.19097563     0.12500
S1719       S  0.95588802  0.77764472  0.17723704    -0.05700
C1720       C  0.96895060  0.78849023  0.19631393    -0.09200
C1721       C  0.96183988  0.80691081  0.20213199    -0.25800
S1722       S  0.90301770  0.85244073  0.17957899    -0.03000
C1723       C  0.88957020  0.84118886  0.16079656    -0.16400
C1724       C  0.89708174  0.82272489  0.15539940    -0.14400
H1725       H  0.92060389  0.78911568  0.15371163     0.21000
H1726       H  0.93851200  0.84107839  0.20354126     0.17000
H1727       H  0.96806909  0.81582454  0.21395189     0.19500
H1728       H  0.89081340  0.81285210  0.14444170     0.12900
C1729       C  0.94476462  0.70916111  0.26738572     0.16700
C1730       C  0.93027086  0.69482109  0.27164702    -0.32300
C1731       C  0.91592297  0.69950710  0.28596474     0.21100
C1732       C  0.91597911  0.71763182  0.29558075     0.03300
C1733       C  0.93057391  0.73191810  0.29146882    -0.22000
C1734       C  0.94495430  0.72722930  0.27718977     0.12500
S1735       S  0.96296152  0.70666206  0.24995622    -0.05700
C1736       C  0.97102082  0.73018174  0.25600143    -0.09200
C1737       C  0.96009392  0.73929917  0.27083924    -0.25800
S1738       S  0.89715133  0.72049248  0.31221209    -0.03000
C1739       C  0.88896090  0.69685662  0.30637418    -0.16400
C1740       C  0.90062910  0.68753496  0.29209386    -0.14400
H1741       H  0.93008014  0.68069952  0.26401247     0.21000
H1742       H  0.93063912  0.74610910  0.29897132     0.17000
H1743       H  0.96271821  0.75418652  0.27627269     0.19500
H1744       H  0.89842485  0.67267106  0.28650236     0.12900
C1745       C  0.81540196  0.61604428  0.30041966     0.16700
C1746       C  0.80055177  0.60195570  0.29701745    -0.32300
C1747       C  0.80514420  0.58604027  0.28459184     0.21100
C1748       C  0.82371201  0.58414351  0.27592781     0.03300
C1749       C  0.83871521  0.59811214  0.27961754    -0.22000
C1750       C  0.83406375  0.61413974  0.29202068     0.12500
S1751       S  0.81240984  0.63668125  0.31450227    -0.05700
C1752       C  0.83670258  0.64304088  0.30926039    -0.09200
C1753       C  0.84640463  0.62951931  0.29709273    -0.25800
S1754       S  0.82583758  0.56429729  0.26038626    -0.03000
C1755       C  0.80148492  0.55856160  0.26577759    -0.16400
C1756       C  0.79239945  0.57130380  0.27898944    -0.14400
H1757       H  0.78594397  0.60350196  0.30352655     0.21000
H1758       H  0.85321990  0.59674690  0.27285038     0.17000
H1759       H  0.86169065  0.63066468  0.29230236     0.19500
H1760       H  0.77707794  0.57021727  0.28374153     0.12900
C1761       C  0.81866178  0.73876648  0.41205342     0.16700
C1762       C  0.83191783  0.73677591  0.39617618    -0.32300
C1763       C  0.83043412  0.71962751  0.38451358     0.21100
C1764       C  0.81646570  0.70510380  0.38856674     0.03300
C1765       C  0.80315272  0.70708971  0.40439454    -0.22000
C1766       C  0.80454591  0.72428712  0.41597784     0.12500
S1767       S  0.81794619  0.75853865  0.42778091    -0.05700
C1768       C  0.79824465  0.74731950  0.43964949    -0.09200
C1769       C  0.79273032  0.72912562  0.43179146    -0.25800
S1770       S  0.81708920  0.68550126  0.37274455    -0.03000
C1771       C  0.83646583  0.69686541  0.36019638    -0.16400
C1772       C  0.84186163  0.71509505  0.36831885    -0.14400
H1773       H  0.84285105  0.74813583  0.39300345     0.21000
H1774       H  0.79213845  0.69578434  0.40747399     0.17000
H1775       H  0.78066799  0.72000643  0.43726371     0.19500
H1776       H  0.85336821  0.72482425  0.36278191     0.12900
C1777       C  0.21100170  0.61088684  0.65995970     0.16700
C1778       C  0.22605164  0.59691427  0.66273723    -0.32300
C1779       C  0.22399085  0.58363659  0.67851379     0.21100
C1780       C  0.20755622  0.58406541  0.69087071     0.03300
C1781       C  0.19231259  0.59792046  0.68787401    -0.22000
C1782       C  0.19451065  0.61142189  0.67217674     0.12500
S1783       S  0.21140049  0.62873958  0.64229434    -0.05700
C1784       C  0.18896051  0.63746104  0.65123757    -0.09200
C1785       C  0.18175636  0.62653625  0.66724242    -0.25800
S1786       S  0.20837740  0.56716355  0.70970126    -0.03000
C1787       C  0.23114612  0.55959003  0.70083056    -0.16400
C1788       C  0.23750033  0.56957502  0.68406203    -0.14400
H1789       H  0.23901472  0.59667652  0.65325257     0.21000
H1790       H  0.17953678  0.59842414  0.69758854     0.17000
H1791       H  0.16806319  0.62938880  0.67507292     0.19500
H1792       H  0.25147571  0.56699107  0.67657327     0.12900
C1793       C  0.20857900  0.69612689  0.57010879     0.16700
C1794       C  0.22166527  0.69695859  0.55405186    -0.32300
C1795       C  0.22488927  0.71546208  0.54525165     0.21100
C1796       C  0.21528581  0.73236820  0.55192082     0.03300
C1797       C  0.20228766  0.73154443  0.56811592    -0.22000
C1798       C  0.19925403  0.71302939  0.57709567     0.12500
S1799       S  0.20326068  0.67519656  0.58307120    -0.05700
C1800       C  0.18857371  0.68930403  0.59860004    -0.09200
C1801       C  0.18773840  0.70924338  0.59341715    -0.25800
S1802       S  0.22100975  0.75333648  0.53897025    -0.03000
C1803       C  0.23673594  0.73917182  0.52470064    -0.16400
C1804       C  0.23737497  0.71930518  0.52974712    -0.14400
H1805       H  0.22916758  0.68378753  0.54878200     0.21000
H1806       H  0.19499622  0.74475899  0.57356485     0.17000
H1807       H  0.17979021  0.72057703  0.60150654     0.19500
H1808       H  0.24641603  0.70826526  0.52240243     0.12900
C1809       C  0.58999101  0.21441376  0.69905412     0.16700
C1810       C  0.60422723  0.19965785  0.69609200    -0.32300
C1811       C  0.61775076  0.20230809  0.68056744     0.21100
C1812       C  0.61725686  0.21892774  0.66856958     0.03300
C1813       C  0.60293726  0.23372782  0.67146667    -0.22000
C1814       C  0.58929178  0.23102242  0.68695876     0.12500
S1815       S  0.57241763  0.21386375  0.71717288    -0.05700
C1816       C  0.56381419  0.23618766  0.70831322    -0.09200
C1817       C  0.57420501  0.24360646  0.69218158    -0.25800
S1818       S  0.63515873  0.21922333  0.65070117    -0.03000
C1819       C  0.64352990  0.19656184  0.65941069    -0.16400
C1820       C  0.63253546  0.18946587  0.67539618    -0.14400
H1821       H  0.60474093  0.18665390  0.70549015     0.21000
H1822       H  0.60243941  0.24673108  0.66207168     0.17000
H1823       H  0.57099783  0.25749060  0.68479910     0.19500
H1824       H  0.63482462  0.17557358  0.68300628     0.12900
C1825       C  0.72055529  0.20091404  0.58211281     0.16700
C1826       C  0.73644408  0.20427906  0.56914806    -0.32300
C1827       C  0.73442521  0.21953815  0.55522415     0.21100
C1828       C  0.71731419  0.23089199  0.55422551     0.03300
C1829       C  0.70134169  0.22736445  0.56706324    -0.22000
C1830       C  0.70340956  0.21213581  0.58104672     0.12500
S1831       S  0.72044457  0.18366026  0.60047746    -0.05700
C1832       C  0.69691782  0.19151282  0.60706751    -0.09200
C1833       C  0.68976154  0.20677568  0.59515016    -0.25800
S1834       S  0.71799966  0.24911177  0.53675138    -0.03000
C1835       C  0.74158546  0.24133578  0.53068125    -0.16400
C1836       C  0.74839950  0.22538801  0.54165547    -0.14400
H1837       H  0.74988837  0.19555793  0.57005205     0.21000
H1838       H  0.68801003  0.23627599  0.56636337     0.17000
H1839       H  0.67543599  0.21381599  0.59659496     0.19500
H1840       H  0.76288458  0.21865597  0.54001716     0.12900
C1841       C  0.70099639  0.60479402  0.18048854     0.16700
C1842       C  0.70255864  0.58941985  0.19437128    -0.32300
C1843       C  0.72014463  0.57833346  0.19450439     0.21100
C1844       C  0.73533050  0.58210872  0.18115237     0.03300
C1845       C  0.73370591  0.59742992  0.16721896    -0.22000
C1846       C  0.71626830  0.60876394  0.16735087     0.12500
S1847       S  0.68143028  0.62065990  0.17869788    -0.05700
C1848       C  0.69401172  0.63324990  0.16019969    -0.09200
C1849       C  0.71240768  0.62496326  0.15572021    -0.25800
S1850       S  0.75564453  0.56729416  0.18401563    -0.03000
C1851       C  0.74371586  0.55613517  0.20367122    -0.16400
C1852       C  0.72487770  0.56345290  0.20749088    -0.14400
H1853       H  0.69078392  0.58653170  0.20490778     0.21000
H1854       H  0.74568973  0.60065999  0.15701963     0.17000
H1855       H  0.72294077  0.63075901  0.14510574     0.19500
H1856       H  0.71528849  0.55837869  0.21933541     0.12900
C1857       C  0.62112066  0.70272979  0.18385570     0.16700
C1858       C  0.60726360  0.70738427  0.19861169    -0.32300
C1859       C  0.59308693  0.72194150  0.19428335     0.21100
C1860       C  0.59280749  0.73157933  0.17614245     0.03300
C1861       C  0.60658294  0.72678505  0.16132549    -0.22000
C1862       C  0.62069640  0.71211997  0.16562166     0.12500
S1863       S  0.63943349  0.68550798  0.18619403    -0.05700
C1864       C  0.64670649  0.69074824  0.16217892    -0.09200
C1865       C  0.63522080  0.70530718  0.15312422    -0.25800
S1866       S  0.57474156  0.74919998  0.17403958    -0.03000
C1867       C  0.56731061  0.74330333  0.19775452    -0.16400
C1868       C  0.57840087  0.72849669  0.20668955    -0.14400
H1869       H  0.60751876  0.69997923  0.21284262     0.21000
H1870       H  0.60634216  0.73419037  0.14709591     0.17000
H1871       H  0.63702879  0.71050063  0.13807185     0.19500
H1872       H  0.57602567  0.72302406  0.22158684     0.12900
C1873       C  0.84412063  0.11842766  0.78233151     0.16700
C1874       C  0.83971127  0.10532824  0.76684194    -0.32300
C1875       C  0.82622936  0.08997287  0.77070700     0.21100
C1876       C  0.81750601  0.08776073  0.78919014     0.03300
C1877       C  0.82212297  0.10073449  0.80477352    -0.22000
C1878       C  0.83559436  0.11614128  0.80086686     0.12500
S1879       S  0.85968789  0.13823241  0.78039057    -0.05700
C1880       C  0.85481474  0.14369623  0.80491864    -0.09200
C1881       C  0.84170413  0.13050952  0.81391794    -0.25800
S1882       S  0.80078373  0.06878523  0.79057308    -0.03000
C1883       C  0.80570955  0.06371201  0.76602069    -0.16400
C1884       C  0.81966318  0.07608797  0.75738484    -0.14400
H1885       H  0.84632433  0.10717220  0.75233697     0.21000
H1886       H  0.81529619  0.09907160  0.81920263     0.17000
H1887       H  0.83693772  0.13120975  0.82920881     0.19500
H1888       H  0.82429605  0.07534753  0.74204265     0.12900
C1889       C  0.70184008  0.11402370  0.68369785     0.16700
C1890       C  0.70413514  0.09931603  0.69824795    -0.32300
C1891       C  0.72160136  0.08798534  0.69784564     0.21100
C1892       C  0.73598177  0.09109741  0.68347047     0.03300
C1893       C  0.73369566  0.10580736  0.66901809    -0.22000
C1894       C  0.71635136  0.11720673  0.66954192     0.12500
S1895       S  0.68206083  0.12965319  0.68179627    -0.05700
C1896       C  0.69351013  0.14094125  0.66175530    -0.09200
C1897       C  0.71176853  0.13251148  0.65703063    -0.25800
S1898       S  0.75603583  0.07589592  0.68530618    -0.03000
C1899       C  0.74513606  0.06521923  0.70581802    -0.16400
C1900       C  0.72681278  0.07315423  0.71082424    -0.14400
H1901       H  0.69288923  0.09692021  0.70945754     0.21000
H1902       H  0.74502243  0.10834666  0.65791442     0.17000
H1903       H  0.72167732  0.13744173  0.64543904     0.19500
H1904       H  0.71781979  0.06834091  0.72322436     0.12900
C1905       C  0.09173421  0.81032172  0.78649906     0.16700
C1906       C  0.10534537  0.81454880  0.80159481    -0.32300
C1907       C  0.12049016  0.82822162  0.79743693     0.21100
C1908       C  0.12215702  0.83720433  0.77906985     0.03300
C1909       C  0.10847298  0.83307085  0.76397544    -0.22000
C1910       C  0.09320591  0.81951780  0.76818370     0.12500
S1911       S  0.07245911  0.79395987  0.78850941    -0.05700
C1912       C  0.06610887  0.79979235  0.76450074    -0.09200
C1913       C  0.07845296  0.81361418  0.75552405    -0.25800
S1914       S  0.14169421  0.85325633  0.77708844    -0.03000
C1915       C  0.14774420  0.84792295  0.80139404    -0.16400
C1916       C  0.13494029  0.83435625  0.81028137    -0.14400
H1917       H  0.10419167  0.80748541  0.81595612     0.21000
H1918       H  0.10964288  0.84012835  0.74961421     0.17000
H1919       H  0.07690309  0.81882059  0.74042853     0.19500
H1920       H  0.13577402  0.82936949  0.82548510     0.12900
C1921       C  0.09072903  0.71681124  0.69747146     0.16700
C1922       C  0.10615840  0.70302145  0.69539466    -0.32300
C1923       C  0.11545093  0.70160536  0.67683616     0.21100
C1924       C  0.10951471  0.71326616  0.66104261     0.03300
C1925       C  0.09417108  0.72713087  0.66312415    -0.22000
C1926       C  0.08502626  0.72870251  0.68172184     0.12500
S1927       S  0.07759192  0.72078551  0.71873785    -0.05700
C1928       C  0.06445124  0.73887007  0.70637919    -0.09200
C1929       C  0.07005343  0.74150874  0.68678011    -0.25800
S1930       S  0.12274526  0.70947126  0.63988304    -0.03000
C1931       C  0.13687526  0.69209643  0.65238467    -0.16400
C1932       C  0.13107743  0.68947502  0.67202376    -0.14400
H1933       H  0.11079302  0.69388367  0.70773474     0.21000
H1934       H  0.08967189  0.73639960  0.65082890     0.17000
H1935       H  0.06344903  0.75214345  0.67674556     0.19500
H1936       H  0.13816724  0.67969386  0.68254525     0.12900
C1937       C  0.81995260  0.79782125  0.05644878     0.16700
C1938       C  0.83259007  0.79999449  0.07280353    -0.32300
C1939       C  0.83038864  0.81703927  0.08452679     0.21100
C1940       C  0.81631181  0.83129359  0.08016708     0.03300
C1941       C  0.80358198  0.82908458  0.06389138    -0.22000
C1942       C  0.80574340  0.81203456  0.05218981     0.12500
S1943       S  0.82002709  0.77810205  0.04055034    -0.05700
C1944       C  0.80055157  0.78903274  0.02814344    -0.09200
C1945       C  0.79457339  0.80707725  0.03596823    -0.25800
S1946       S  0.81621948  0.85092888  0.09609010    -0.03000
C1947       C  0.83550053  0.83995964  0.10896803    -0.16400
C1948       C  0.84126850  0.82177210  0.10101008    -0.14400
H1949       H  0.84363108  0.78887608  0.07626306     0.21000
H1950       H  0.79246172  0.84014822  0.06051433     0.17000
H1951       H  0.78245630  0.81594338  0.03029580     0.19500
H1952       H  0.85269040  0.81218671  0.10684730     0.12900
C1953       C  0.71545604  0.72406469  0.05266646     0.16700
C1954       C  0.70045329  0.72113448  0.06678811    -0.32300
C1955       C  0.70361567  0.70664514  0.08137806     0.21100
C1956       C  0.72091176  0.69560594  0.08186529     0.03300
C1957       C  0.73582027  0.69838939  0.06766451    -0.22000
C1958       C  0.73266162  0.71282924  0.05308116     0.12500
S1959       S  0.71486949  0.74139122  0.03421424    -0.05700
C1960       C  0.73800903  0.73331415  0.02692797    -0.09200
C1961       C  0.74558611  0.71795630  0.03826452    -0.25800
S1962       S  0.72206345  0.67902562  0.10085160    -0.03000
C1963       C  0.69881515  0.68681350  0.10838277    -0.16400
C1964       C  0.69087009  0.70166205  0.09644465    -0.14400
H1965       H  0.68699742  0.72988024  0.06652323     0.21000
H1966       H  0.74935561  0.68976917  0.06804956     0.17000
H1967       H  0.76001338  0.71124453  0.03610287     0.19500
H1968       H  0.67644876  0.70840104  0.09838377     0.12900
C1969       C  0.92723132  0.82425218  0.80505944     0.16700
C1970       C  0.94321234  0.81108024  0.80325776    -0.32300
C1971       C  0.95382460  0.81112839  0.78537375     0.21100
C1972       C  0.94880710  0.82378763  0.76999687     0.03300
C1973       C  0.93268649  0.83682372  0.77174981    -0.22000
C1974       C  0.92203807  0.83673894  0.78963325     0.12500
S1975       S  0.91251674  0.82639957  0.82547995    -0.05700
C1976       C  0.89887262  0.84427808  0.81316374    -0.09200
C1977       C  0.90582370  0.84820847  0.79413199    -0.25800
S1978       S  0.96369242  0.82171627  0.74959685    -0.03000
C1979       C  0.97672873  0.80346115  0.76182423    -0.16400
C1980       C  0.96973870  0.79933533  0.78072890    -0.14400
H1981       H  0.94718533  0.80121093  0.81526544     0.21000
H1982       H  0.92862884  0.84660986  0.75970510     0.17000
H1983       H  0.89919880  0.85856033  0.78384601     0.19500
H1984       H  0.97594810  0.78826394  0.79054212     0.12900
C1985       C  0.82871484  0.92853514  0.80764017     0.16700
C1986       C  0.81554764  0.94455077  0.80604221    -0.32300
C1987       C  0.81489454  0.95475783  0.78794273     0.21100
C1988       C  0.82710897  0.94948428  0.77227956     0.03300
C1989       C  0.84030991  0.93350937  0.77391460    -0.22000
C1990       C  0.84069389  0.92308334  0.79189944     0.12500
S1991       S  0.83091862  0.91361864  0.82790531    -0.05700
C1992       C  0.84795489  0.89942162  0.81500898    -0.09200
C1993       C  0.85175896  0.90650521  0.79599870    -0.25800
S1994       S  0.82399260  0.96356648  0.75152028    -0.03000
C1995       C  0.80577645  0.97652879  0.76391504    -0.16400
C1996       C  0.80253981  0.97023385  0.78320977    -0.14400
H1997       H  0.80594443  0.94861804  0.81823857     0.21000
H1998       H  0.84961193  0.92916988  0.76157865     0.17000
H1999       H  0.86146566  0.89954351  0.78531074     0.19500
H2000       H  0.79168162  0.97656304  0.79318866     0.12900
C2001       C  0.82165792  0.83264224  0.88980107     0.16700
C2002       C  0.80717147  0.82941809  0.90434265    -0.32300
C2003       C  0.80910913  0.81254520  0.91631581     0.21100
C2004       C  0.82474232  0.79942764  0.91394442     0.03300
C2005       C  0.83926035  0.80271100  0.89941374    -0.22000
C2006       C  0.83731436  0.81962258  0.88743655     0.12500
S2007       S  0.82194396  0.85214470  0.87376165    -0.05700
C2008       C  0.84356408  0.84285064  0.86350181    -0.09200
C2009       C  0.84989246  0.82534022  0.87251999    -0.25800
S2010       S  0.82419755  0.77967042  0.92981109    -0.03000
C2011       C  0.80267162  0.78922871  0.93974569    -0.16400
C2012       C  0.79644110  0.80680365  0.93110882    -0.14400
H2013       H  0.79489640  0.83958647  0.90621022     0.21000
H2014       H  0.85149544  0.79250743  0.89748239     0.17000
H2015       H  0.86300249  0.81699402  0.86868963     0.19500
H2016       H  0.78319694  0.81485792  0.93528515     0.12900
C2017       C  0.92197233  0.70601197  0.68584357     0.16700
C2018       C  0.93673964  0.70801728  0.70033991    -0.32300
C2019       C  0.95107437  0.72287441  0.69754380     0.21100
C2020       C  0.95079321  0.73505930  0.68099602     0.03300
C2021       C  0.93618632  0.73286698  0.66642498    -0.22000
C2022       C  0.92178477  0.71813148  0.66930975     0.12500
S2023       S  0.90279987  0.68951358  0.68677126    -0.05700
C2024       C  0.89421077  0.69900124  0.66453734    -0.09200
C2025       C  0.90611734  0.71417027  0.65704748    -0.25800
S2026       S  0.96888256  0.75275340  0.68069132    -0.03000
C2027       C  0.97692266  0.74371858  0.70315847    -0.16400
C2028       C  0.96615038  0.72770380  0.71030135    -0.14400
H2029       H  0.93685037  0.69865699  0.71336874     0.21000
H2030       H  0.93584643  0.74247040  0.65357091     0.17000
H2031       H  0.90372702  0.72216333  0.64338595     0.19500
H2032       H  0.96886451  0.72035228  0.72429733     0.12900
C2033       C  0.81782809  0.62100155  0.66756653     0.16700
C2034       C  0.80513304  0.60448831  0.66812726    -0.32300
C2035       C  0.80512561  0.59292373  0.68541231     0.21100
C2036       C  0.81734186  0.59750129  0.70131288     0.03300
C2037       C  0.82989009  0.61406535  0.70078359    -0.22000
C2038       C  0.82977177  0.62569319  0.68358959     0.12500
S2039       S  0.82016083  0.63690393  0.64805079    -0.05700
C2040       C  0.83749147  0.65017494  0.66159083    -0.09200
C2041       C  0.84088185  0.64240173  0.68038306    -0.25800
S2042       S  0.81510373  0.58183039  0.72099313    -0.03000
C2043       C  0.79719834  0.56914487  0.70787831    -0.16400
C2044       C  0.79345300  0.57664434  0.68911417    -0.14400
H2045       H  0.79562068  0.60088324  0.65570468     0.21000
H2046       H  0.83927611  0.61778081  0.71327086     0.17000
H2047       H  0.85079686  0.64857387  0.69137599     0.19500
H2048       H  0.78252831  0.57074777  0.67891113     0.12900
C2049       C  0.81018318  0.72001380  0.55217166     0.16700
C2050       C  0.81372349  0.70456854  0.56558321    -0.32300
C2051       C  0.82591203  0.70864894  0.58192106     0.21100
C2052       C  0.83437657  0.72718905  0.58466692     0.03300
C2053       C  0.83116606  0.74253402  0.57105624    -0.22000
C2054       C  0.81884248  0.73851046  0.55480704     0.12500
S2055       S  0.79453871  0.71853027  0.53235190    -0.05700
C2056       C  0.79976954  0.74307384  0.52751664    -0.09200
C2057       C  0.81311808  0.75175587  0.54053338    -0.25800
S2058       S  0.84817255  0.72929437  0.60571288    -0.03000
C2059       C  0.84256300  0.70483130  0.61101922    -0.16400
C2060       C  0.83059763  0.69575622  0.59687972    -0.14400
H2061       H  0.80688956  0.69014901  0.56363046     0.21000
H2062       H  0.83765283  0.75707828  0.57325253     0.17000
H2063       H  0.81768262  0.76716199  0.54009920     0.19500
H2064       H  0.82568248  0.68047184  0.59730028     0.12900
C2065       C  0.71737992  0.92824725  0.66643345     0.16700
C2066       C  0.73158797  0.94345991  0.66752497    -0.32300
C2067       C  0.73244455  0.95461669  0.68503767     0.21100
C2068       C  0.71956960  0.95087049  0.70063680     0.03300
C2069       C  0.70541810  0.93564490  0.69954138    -0.22000
C2070       C  0.70468280  0.92439149  0.68211176     0.12500
S2071       S  0.71424880  0.91281888  0.64672119    -0.05700
C2072       C  0.69570886  0.90068957  0.65974832    -0.09200
C2073       C  0.69224232  0.90867040  0.67841684    -0.25800
S2074       S  0.72288405  0.96592623  0.72060573    -0.03000
C2075       C  0.74199960  0.97732797  0.70798118    -0.16400
C2076       C  0.74545905  0.96978618  0.68918549    -0.14400
H2077       H  0.74163312  0.94634887  0.65533452     0.21000
H2078       H  0.69550975  0.93261212  0.71180929     0.17000
H2079       H  0.68156525  0.90307213  0.68901522     0.19500
H2080       H  0.75688430  0.97503154  0.67917841     0.12900
C2081       C  0.60603301  0.83729632  0.66389879     0.16700
C2082       C  0.58866917  0.82587154  0.66410772    -0.32300
C2083       C  0.57945798  0.82270084  0.68241838     0.21100
C2084       C  0.58689754  0.83093139  0.69973155     0.03300
C2085       C  0.60426158  0.84246287  0.69950093    -0.22000
C2086       C  0.61373232  0.84529519  0.68119426     0.12500
S2087       S  0.62008500  0.84149725  0.64339196    -0.05700
C2088       C  0.63697122  0.85380319  0.65823569    -0.09200
C2089       C  0.63142619  0.85493199  0.67803058    -0.25800
S2090       S  0.57359979  0.82504902  0.72046378    -0.03000
C2091       C  0.55816533  0.81103422  0.70564796    -0.16400
C2092       C  0.56304588  0.81117704  0.68573072    -0.14400
H2093       H  0.58288763  0.81929243  0.65065007     0.21000
H2094       H  0.61036492  0.84855629  0.71304103     0.17000
H2095       H  0.64031450  0.86153139  0.68966564     0.19500
H2096       H  0.55509786  0.80314213  0.67430864     0.12900
C2097       C  0.70132258  0.82253965  0.58387080     0.16700
C2098       C  0.70343010  0.80813004  0.56902410    -0.32300
C2099       C  0.71973390  0.80991804  0.55619190     0.21100
C2100       C  0.73328256  0.82531943  0.55814169     0.03300
C2101       C  0.73114475  0.83964865  0.57293507    -0.22000
C2102       C  0.71486574  0.83789074  0.58567474     0.12500
S2103       S  0.68258862  0.82331871  0.60081645    -0.05700
C2104       C  0.69302004  0.84474122  0.61051065    -0.09200
C2105       C  0.71025349  0.85059513  0.60073888    -0.25800
S2106       S  0.75210464  0.82499030  0.54136072    -0.03000
C2107       C  0.74171918  0.80383180  0.53149200    -0.16400
C2108       C  0.72449572  0.79747782  0.54083003    -0.14400
H2109       H  0.69283719  0.79611867  0.56751863     0.21000
H2110       H  0.74170930  0.85169160  0.57442736     0.17000
H2111       H  0.71905208  0.86360724  0.60398263     0.19500
H2112       H  0.71603795  0.78443759  0.53670850     0.12900
C2113       C  0.69705679  0.72012268  0.88594129     0.16700
C2114       C  0.70199309  0.73447348  0.90013231    -0.32300
C2115       C  0.71683194  0.72973061  0.91389493     0.21100
C2116       C  0.72630243  0.71150026  0.91362125     0.03300
C2117       C  0.72113941  0.69704577  0.89959803    -0.22000
C2118       C  0.70635879  0.70183962  0.88576330     0.12500
S2119       S  0.68005337  0.72326205  0.86750734    -0.05700
C2120       C  0.68548459  0.69962577  0.85921036    -0.09200
C2121       C  0.69969932  0.68998197  0.87066548    -0.25800
S2122       S  0.74446570  0.70896431  0.93110516    -0.03000
C2123       C  0.73915339  0.73269132  0.93893549    -0.16400
C2124       C  0.72404982  0.74189849  0.92846491    -0.14400
H2125       H  0.69479349  0.74881360  0.90026005     0.21000
H2126       H  0.72854064  0.68281238  0.89927752     0.17000
H2127       H  0.70502761  0.67506176  0.86824725     0.19500
H2128       H  0.71887194  0.75685566  0.93113031     0.12900
C2129       C  0.60307453  0.72068616  0.79973149     0.16700
C2130       C  0.58699945  0.73374232  0.79809970    -0.32300
C2131       C  0.57678687  0.73424312  0.77999838     0.21100
C2132       C  0.58219328  0.72216267  0.76428695     0.03300
C2133       C  0.59828085  0.70914141  0.76593601    -0.22000
C2134       C  0.60860135  0.70877986  0.78397909     0.12500
S2135       S  0.61769707  0.71818616  0.82019363    -0.05700
C2136       C  0.63170307  0.70091005  0.80743560    -0.09200
C2137       C  0.62494835  0.69751989  0.78821761    -0.25800
S2138       S  0.56814820  0.72523702  0.74346119    -0.03000
C2139       C  0.55500538  0.74319933  0.75595880    -0.16400
C2140       C  0.56119305  0.74636340  0.77530380    -0.14400
H2141       H  0.58279005  0.74325911  0.81031063     0.21000
H2142       H  0.60270516  0.69986124  0.75361913     0.17000
H2143       H  0.63177324  0.68775993  0.77751066     0.19500
H2144       H  0.55485029  0.75720499  0.78528904     0.12900
C2145       C  0.69684003  0.62459251  0.78093385     0.16700
C2146       C  0.70130706  0.61146304  0.76547184    -0.32300
C2147       C  0.71544354  0.59668354  0.76917347     0.21100
C2148       C  0.72483364  0.59514875  0.78738737     0.03300
C2149       C  0.72027483  0.60821606  0.80285883    -0.22000
C2150       C  0.70604122  0.62290342  0.79919410     0.12500
S2151       S  0.68019882  0.64353677  0.77946224    -0.05700
C2152       C  0.68554060  0.64936367  0.80384312    -0.09200
C2153       C  0.69958912  0.63691119  0.81239059    -0.25800
S2154       S  0.74179335  0.57644677  0.78882484    -0.03000
C2155       C  0.73598363  0.57041941  0.76471095    -0.16400
C2156       C  0.72172422  0.58246451  0.75610463    -0.14400
H2157       H  0.69407518  0.61270170  0.75120162     0.21000
H2158       H  0.72751950  0.60700084  0.81712463     0.17000
H2159       H  0.70478508  0.63776421  0.82752639     0.19500
H2160       H  0.71637265  0.58100544  0.74104571     0.12900
loop_ 
_geom_bond_atom_site_label_1 
_geom_bond_atom_site_label_2 
_geom_bond_distance 
_geom_bond_site_symmetry_2 
_ccdc_geom_bond_type 
C1            C2   1.407       .  A
C1            C6   1.407       .  A
C1         C2120   1.493       .  S
C2            C3   1.406       .  A
C2            H7   1.078       .  S
C3            C4   1.405       .  A
C3         C2152   1.492       .  S
C4            C5   1.408       .  A
C4            H8   1.079       .  S
C5            C6   1.408       .  A
C5         C2136   1.495       .  S
C6            H9   1.080       .  S
C10          C11   1.409       .  A
C10          C15   1.406       .  A
C10        C2072   1.492       .  S
C11          C12   1.407       .  A
C11          H16   1.081       .  S
C12          C13   1.404       .  A
C12        C2088   1.484       .  S
C13          C14   1.403       .  A
C13          H17   1.080       .  S
C14          C15   1.407       .  A
C14        C2104   1.495       .  S
C15          H18   1.077       .  S
C19          C20   1.407       .  A
C19          C24   1.407       .  A
C19        C2024   1.496       .  S
C20          C21   1.403       .  A
C20          H25   1.078       .  S
C21          C22   1.406       .  A
C21        C2059   1.488       .  S
C22          C23   1.406       .  A
C22          H26   1.080       .  S
C23          C24   1.408       .  A
C23        C2040   1.493       .  S
C24          H27   1.078       .  S
C28          C29   1.408       .  A
C28          C33   1.408       .  A
C28        C2008   1.500       .  S
C29          C30   1.407       .  A
C29          H34   1.077       .  S
C30          C31   1.409       .  A
C30        C1976   1.495       .  S
C31          C32   1.409       .  A
C31          H35   1.080       .  S
C32          C33   1.408       .  A
C32        C1992   1.496       .  S
C33          H36   1.079       .  S
O37         Cu45   2.017       .  S
O37          C47   1.278       .  A
O38         Cu45   2.012   1_554  S
O38          C48   1.278       .  A
O39         Cu45   2.017       .  S
O39          C49   1.279       .  A
O40         Cu45   2.015   1_554  S
O40          C50   1.278       .  A
O41         Cu46   2.007   1_554  S
O41          C50   1.278       .  A
O42         Cu46   2.004       .  S
O42          C49   1.277       .  A
O43         Cu46   2.010   1_554  S
O43          C48   1.277       .  A
O44         Cu46   2.005       .  S
O44          C47   1.278       .  A
Cu45        Cu46   2.374       .  S
C47        C2011   1.474       .  S
C48        C1960   1.473       .  S
C49        C2123   1.473       .  S
C50        C1944   1.473       .  S
O51         Cu59   2.016   1_655  S
O51          C61   1.279       .  A
O52         Cu59   2.010       .  S
O52          C62   1.278       .  A
O53         Cu59   2.012   1_655  S
O53          C63   1.278       .  A
O54         Cu59   2.013       .  S
O54          C64   1.278       .  A
O55         Cu60   2.017       .  S
O55          C64   1.279       .  A
O56         Cu60   2.023       .  S
O56          C63   1.279   1_455  A
O57         Cu60   2.006       .  S
O57          C62   1.277       .  A
O58         Cu60   1.995       .  S
O58          C61   1.276   1_455  A
Cu59        Cu60   2.374       .  S
C61        C2027   1.469       .  S
C62        C1912   1.470       .  S
C63        C1979   1.477       .  S
C64        C1928   1.475       .  S
O65         Cu73   2.029   1_565  S
O65          C75   1.281       .  A
O66         Cu73   2.028       .  S
O66          C76   1.281       .  A
O67         Cu73   2.000   1_565  S
O67          C77   1.276       .  A
O68         Cu73   1.993       .  S
O68          C78   1.275       .  A
O69         Cu74   2.037       .  S
O69          C78   1.281       .  A
O70         Cu74   2.029   1_565  S
O70          C77   1.281       .  A
O71         Cu74   1.990       .  S
O71          C76   1.274       .  A
O72         Cu74   1.991       .  S
O72          C75   1.275   1_545  A
Cu73        Cu74   2.373       .  S
C75        C2075   1.472       .  S
C76        C1883   1.470       .  S
C77        C1995   1.475       .  S
C78        C1899   1.475       .  S
C79          C80   1.407       .  A
C79          C84   1.408       .  A
C79        C1963   1.494       .  S
C80          C81   1.407       .  A
C80          H85   1.079       .  S
C81          C82   1.406       .  A
C81        C1848   1.496       .  S
C82          C83   1.407       .  A
C82          H86   1.080       .  S
C83          C84   1.408       .  A
C83        C1864   1.494       .  S
C84          H87   1.079       .  S
C88          C89   1.405       .  A
C88          C93   1.406       .  A
C88        C1896   1.498       .  S
C89          C90   1.410       .  A
C89          H94   1.076       .  S
C90          C91   1.408       .  A
C90        C1819   1.498       .  S
C91          C92   1.408       .  A
C91          H95   1.078       .  S
C92          C93   1.406       .  A
C92        C1832   1.495       .  S
C93          H96   1.077       .  S
C97          C98   1.414       .  A
C97         C102   1.409       .  A
C97        C1931   1.496       .  S
C98          C99   1.412       .  A
C98         H103   1.078       .  S
C99         C100   1.404       .  A
C99        C1784   1.498       .  S
C100        C101   1.399       .  A
C100        H104   1.078       .  S
C101        C102   1.402       .  A
C101       C1800   1.488       .  S
C102        H105   1.080       .  S
C106        C107   1.409       .  A
C106        C111   1.411       .  A
C106       C1739   1.497       .  S
C107        C108   1.404       .  A
C107        H112   1.078       .  S
C108        C109   1.402       .  A
C108       C1752   1.487       .  S
C109        C110   1.404       .  A
C109        H113   1.079       .  S
C110        C111   1.410       .  A
C110       C1771   1.498       .  S
C111        H114   1.079       .  S
O115       Cu123   2.017   1_655  S
O115        C125   1.279       .  A
O116       Cu123   2.014       .  S
O116        C126   1.279       .  A
O117       Cu123   2.009   1_655  S
O117        C127   1.277       .  A
O118       Cu123   2.010       .  S
O118        C128   1.278       .  A
O119       Cu124   2.014       .  S
O119        C128   1.278       .  A
O120       Cu124   2.014   1_655  S
O120        C127   1.279       .  A
O121       Cu124   2.016       .  S
O121        C126   1.278       .  A
O122       Cu124   2.011   1_655  S
O122        C125   1.278       .  A
Cu123      Cu124   2.373       .  S
C125       C1736   1.474       .  S
C126       C1707   1.476       .  S
C127       C1720   1.473       .  S
C128       C1691   1.474       .  S
C129        C130   1.406       .  A
C129        C134   1.406       .  A
C129       C1947   1.498       .  S
C130        C131   1.407       .  A
C130        H135   1.080       .  S
C131        C132   1.408       .  A
C131       C1672   1.492       .  S
C132        C133   1.408       .  A
C132        H136   1.080       .  S
C133        C134   1.408       .  A
C133       C1723   1.498       .  S
C134        H137   1.075       .  S
C138        C139   1.401       .  A
C138        C143   1.400       .  A
C138       C1624   1.487       .  S
C139        C140   1.407       .  A
C139        H144   1.078       .  S
C140        C141   1.412       .  A
C140       C1640   1.496       .  S
C141        C142   1.410       .  A
C141        H145   1.078       .  S
C142        C143   1.407       .  A
C142       C1656   1.496       .  S
C143        H146   1.078       .  S
O147       Cu155   2.012   1_565  S
O147        C157   1.278       .  A
O148       Cu155   2.013       .  S
O148        C158   1.278       .  A
O149       Cu155   1.998   1_565  S
O149        C159   1.277       .  A
O150       Cu155   2.007       .  S
O150        C160   1.277       .  A
O151       Cu156   2.006       .  S
O151        C160   1.278       .  A
O152       Cu156   2.012       .  S
O152        C159   1.278   1_545  A
O153       Cu156   2.013       .  S
O153        C158   1.278       .  A
O154       Cu156   2.012   1_565  S
O154        C157   1.278       .  A
Cu155      Cu156   2.374       .  S
C157       C1675   1.473       .  S
C158       C1611   1.474       .  S
C159       C1627   1.468       .  S
C160       C1592   1.469       .  S
C161        C162   1.408       .  A
C161        C166   1.407       .  A
C161       C1544   1.492       .  S
C162        C163   1.406       .  A
C162        H167   1.079       .  S
C163        C164   1.404       .  A
C163       C1576   1.489       .  S
C164        C165   1.404       .  A
C164        H168   1.079       .  S
C165        C166   1.406       .  A
C165       C1560   1.489       .  S
C166        H169   1.081       .  S
O170       Cu178   2.004       .  S
O170        C180   1.277   1_545  A
O171       Cu178   1.998       .  S
O171        C181   1.276       .  A
O172       Cu178   2.023       .  S
O172        C182   1.280   1_545  A
O173       Cu178   2.021       .  S
O173        C183   1.280       .  A
O174       Cu179   1.999       .  S
O174        C183   1.276       .  A
O175       Cu179   1.997       .  S
O175        C182   1.276   1_545  A
O176       Cu179   2.018       .  S
O176        C181   1.279       .  A
O177       Cu179   2.014       .  S
O177        C180   1.279   1_545  A
Cu178      Cu179   2.374       .  S
C180       C1528   1.472       .  S
C181       C1512   1.471       .  S
C182       C1547   1.472       .  S
C183       C1499   1.471       .  S
C184        C185   1.402       .  A
C184        C189   1.405       .  A
C184       C1480   1.489       .  S
C185        C186   1.404       .  A
C185        H190   1.080       .  S
C186        C187   1.407       .  A
C186       C1915   1.491       .  S
C187        C188   1.411       .  A
C187        H191   1.078       .  S
C188        C189   1.409       .  A
C188       C1531   1.497       .  S
C189        H192   1.079       .  S
C193        C194   1.403       .  A
C193        C198   1.404       .  A
C193       C1432   1.491       .  S
C194        C195   1.408       .  A
C194        H199   1.076       .  S
C195        C196   1.409       .  A
C195       C1448   1.497       .  S
C196        C197   1.408       .  A
C196        H200   1.077       .  S
C197        C198   1.406       .  A
C197       C1464   1.496       .  S
C198        H201   1.078       .  S
O202       Cu210   2.011       .  S
O202        C212   1.278   1_556  A
O203       Cu210   2.007       .  S
O203        C213   1.278       .  A
O204       Cu210   2.013       .  S
O204        C214   1.278   1_556  A
O205       Cu210   2.009       .  S
O205        C215   1.278       .  A
O206       Cu211   2.003       .  S
O206        C215   1.277       .  A
O207       Cu211   1.999       .  S
O207        C214   1.277   1_556  A
O208       Cu211   1.998       .  S
O208        C213   1.276       .  A
O209       Cu211   2.003       .  S
O209        C212   1.277   1_556  A
Cu210      Cu211   2.375       .  S
C212       C1403   1.470       .  S
C213       C1435   1.467       .  S
C214       C1416   1.469       .  S
C215       C1483   1.469       .  S
C216        C217   1.404       .  A
C216        C221   1.407       .  A
C216       C1355   1.490       .  S
C217        C218   1.403       .  A
C217        H222   1.080       .  S
C218        C219   1.408       .  A
C218       C1384   1.495       .  S
C219        C220   1.409       .  A
C219        H223   1.078       .  S
C220        C221   1.411       .  A
C220       C1368   1.500       .  S
C221        H224   1.078       .  S
O225       Cu233   2.001       .  S
O225        C235   1.276       .  A
O226       Cu233   2.007       .  S
O226        C236   1.277   1_455  A
O227       Cu233   2.011       .  S
O227        C237   1.277       .  A
O228       Cu233   2.003       .  S
O228        C238   1.278   1_455  A
O229       Cu234   2.011       .  S
O229        C238   1.277   1_455  A
O230       Cu234   1.999       .  S
O230        C237   1.277       .  A
O231       Cu234   1.995       .  S
O231        C236   1.276   1_455  A
O232       Cu234   2.003       .  S
O232        C235   1.277       .  A
Cu233      Cu234   2.376       .  S
C235       C1320   1.465       .  S
C236       C1339   1.465       .  S
C237       C1304   1.468       .  S
C238       C1352   1.470       .  S
C239        C240   1.404       .  A
C239        C244   1.409       .  A
C239       C1288   1.491       .  S
C240        C241   1.402       .  A
C240        H245   1.079       .  S
C241        C242   1.403       .  A
C241       C1336   1.487       .  S
C242        C243   1.405       .  A
C242        H246   1.081       .  S
C243        C244   1.408       .  A
C243       C1880   1.489       .  S
C244        H247   1.079       .  S
C248        C249   1.405       .  A
C248        C253   1.408       .  A
C248       C1240   1.500       .  S
C249        C250   1.407       .  A
C249        H254   1.074       .  S
C250        C251   1.407       .  A
C250       C1256   1.499       .  S
C251        C252   1.410       .  A
C251        H255   1.078       .  S
C252        C253   1.410       .  A
C252       C1275   1.497       .  S
C253        H256   1.077       .  S
O257       Cu265   1.993       .  S
O257        C267   1.275   1_556  A
O258       Cu265   1.998       .  S
O258        C268   1.276       .  A
O259       Cu265   2.021       .  S
O259        C269   1.279   1_556  A
O260       Cu265   2.023       .  S
O260        C270   1.280       .  A
O261       Cu266   1.995       .  S
O261        C270   1.276       .  A
O262       Cu266   1.998       .  S
O262        C269   1.276   1_556  A
O263       Cu266   2.007       .  S
O263        C268   1.278       .  A
O264       Cu266   2.010       .  S
O264        C267   1.279   1_556  A
Cu265      Cu266   2.375       .  S
C267       C1224   1.466       .  S
C268       C1291   1.466       .  S
C269       C1208   1.469       .  S
C270       C1243   1.472       .  S
C271        C272   1.404       .  A
C271        C276   1.407       .  A
C271       C1227   1.490       .  S
C272        C273   1.403       .  A
C272        H277   1.079       .  S
C273        C274   1.405       .  A
C273       C1192   1.493       .  S
C274        C275   1.406       .  A
C274        H278   1.075       .  S
C275        C276   1.407       .  A
C275       C1176   1.495       .  S
C276        H279   1.075       .  S
C280        C281   1.409       .  A
C280        C285   1.406       .  A
C280       C1419   1.491       .  S
C281        C282   1.410       .  A
C281        H286   1.078       .  S
C282        C283   1.409       .  A
C282       C1147   1.498       .  S
C283        C284   1.406       .  A
C283        H287   1.079       .  S
C284        C285   1.403       .  A
C284       C1160   1.496       .  S
C285        H288   1.078       .  S
C289        C290   1.407       .  A
C289        C294   1.409       .  A
C289       C1608   1.494       .  S
C290        C291   1.406       .  A
C290        H295   1.080       .  S
C291        C292   1.406       .  A
C291       C1128   1.493       .  S
C292        C293   1.407       .  A
C292        H296   1.080       .  S
C293        C294   1.408       .  A
C293       C1112   1.497       .  S
C294        H297   1.077       .  S
C298        C299   1.404       .  A
C298        C303   1.404       .  A
C298       C1064   1.494       .  S
C299        C300   1.410       .  A
C299        H304   1.079       .  S
C300        C301   1.412       .  A
C300       C1080   1.499       .  S
C301        C302   1.410       .  A
C301        H305   1.079       .  S
C302        C303   1.406       .  A
C302       C1099   1.494       .  S
C303        H306   1.080       .  S
C307        C308   1.407       .  A
C307        C312   1.404       .  A
C307       C1400   1.493       .  S
C308        C309   1.411       .  A
C308        H313   1.077       .  S
C309        C310   1.412       .  A
C309       C1704   1.500       .  S
C310        C311   1.409       .  A
C310        H314   1.079       .  S
C311        C312   1.404       .  A
C311       C1051   1.497       .  S
C312        H315   1.077       .  S
C316        C317   1.409       .  A
C316        C321   1.406       .  A
C316       C1000   1.496       .  S
C317        C318   1.410       .  A
C317        H322   1.076       .  S
C318        C319   1.407       .  A
C318       C1016   1.498       .  S
C319        C320   1.405       .  A
C319        H323   1.079       .  S
C320        C321   1.405       .  A
C320       C1032   1.491       .  S
C321        H324   1.080       .  S
O325       Cu333   2.020       .  S
O325        C335   1.279       .  A
O326       Cu333   2.017   1_565  S
O326        C336   1.279       .  A
O327       Cu333   2.000       .  S
O327        C337   1.276       .  A
O328       Cu333   2.009   1_565  S
O328        C338   1.277       .  A
O329       Cu334   2.016   1_565  S
O329        C338   1.279       .  A
O330       Cu334   2.023       .  S
O330        C337   1.280       .  A
O331       Cu334   2.013   1_565  S
O331        C336   1.278       .  A
O332       Cu334   2.007       .  S
O332        C335   1.278       .  A
Cu333      Cu334   2.373       .  S
C335       C1067   1.474       .  S
C336       C1048   1.475       .  S
C337        C984   1.473       .  S
C338       C1003   1.474       .  S
C339        C340   1.410       .  A
C339        C344   1.408       .  A
C339       C1515   1.495       .  S
C340        C341   1.410       .  A
C340        H345   1.079       .  S
C341        C342   1.406       .  A
C341        C952   1.495       .  S
C342        C343   1.403       .  A
C342        H346   1.081       .  S
C343        C344   1.403       .  A
C343        C968   1.489       .  S
C344        H347   1.077       .  S
C348        C349   1.400       .  A
C348        C353   1.400       .  A
C348       C1323   1.482       .  S
C349        C350   1.405       .  A
C349        H354   1.080       .  S
C350        C351   1.410       .  A
C350        C939   1.489       .  S
C351        C352   1.413       .  A
C351        H355   1.079       .  S
C352        C353   1.406       .  A
C352        C920   1.497       .  S
C353        H356   1.080       .  S
C357        C358   1.409       .  A
C357        C362   1.410       .  A
C357        C872   1.502       .  S
C358        C359   1.408       .  A
C358        H363   1.079       .  S
C359        C360   1.406       .  A
C359        C888   1.494       .  S
C360        C361   1.408       .  A
C360        H364   1.077       .  S
C361        C362   1.410       .  A
C361        C907   1.500       .  S
C362        H365   1.076       .  S
C366        C367   1.401       .  A
C366        C371   1.404       .  A
C366       C1211   1.485       .  S
C367        C368   1.405       .  A
C367        H372   1.081       .  S
C368        C369   1.408       .  A
C368       C1595   1.490       .  S
C369        C370   1.411       .  A
C369        H373   1.077       .  S
C370        C371   1.408       .  A
C370        C856   1.497       .  S
C371        H374   1.080       .  S
C375        C376   1.405       .  A
C375        C380   1.404       .  A
C375        C824   1.492       .  S
C376        C377   1.411       .  A
C376        H381   1.077       .  S
C377        C378   1.409       .  A
C377        C840   1.497       .  S
C378        C379   1.407       .  A
C378        H382   1.076       .  S
C379        C380   1.405       .  A
C379        C808   1.498       .  S
C380        H383   1.079       .  S
O384       Cu392   2.012   1_655  S
O384        C394   1.279       .  A
O385       Cu392   2.010       .  S
O385        C395   1.277       .  A
O386       Cu392   2.011   1_655  S
O386        C396   1.278       .  A
O387       Cu392   2.012       .  S
O387        C397   1.278       .  A
O388       Cu393   2.017       .  S
O388        C397   1.279       .  A
O389       Cu393   2.010   1_655  S
O389        C396   1.278       .  A
O390       Cu393   2.003       .  S
O390        C395   1.278       .  A
O391       Cu393   2.005   1_655  S
O391        C394   1.277       .  A
Cu392      Cu393   2.374       .  S
C394        C811   1.471       .  S
C395        C795   1.470       .  S
C396        C859   1.472       .  S
C397        C875   1.476       .  S
C398        C399   1.408       .  A
C398        C403   1.407       .  A
C398       C1688   1.496       .  S
C399        C400   1.409       .  A
C399        H404   1.078       .  S
C400        C401   1.406       .  A
C400        C760   1.490       .  S
C401        C402   1.405       .  A
C401        H405   1.080       .  S
C402        C403   1.404       .  A
C402        C776   1.489       .  S
C403        H406   1.080       .  S
C407        C408   1.407       .  A
C407        C412   1.408       .  A
C407        C792   1.497       .  S
C408        C409   1.403       .  A
C408        H413   1.079       .  S
C409        C410   1.405       .  A
C409        C987   1.490       .  S
C410        C411   1.408       .  A
C410        H414   1.080       .  S
C411        C412   1.410       .  A
C411        C747   1.493       .  S
C412        H415   1.077       .  S
C416        C417   1.409       .  A
C416        C421   1.404       .  A
C416        C699   1.497       .  S
C417        C418   1.412       .  A
C417        H422   1.078       .  S
C418        C419   1.411       .  A
C418        C731   1.496       .  S
C419        C420   1.406       .  A
C419        H423   1.081       .  S
C420        C421   1.403       .  A
C420        C712   1.493       .  S
C421        H424   1.077       .  S
C425        C426   1.408       .  A
C425        C430   1.402       .  A
C425       C1496   1.494       .  S
C426        C427   1.412       .  A
C426        H431   1.079       .  S
C427        C428   1.410       .  A
C427        C683   1.497       .  S
C428        C429   1.405       .  A
C428        H432   1.078       .  S
C429        C430   1.402       .  A
C429       C1307   1.489       .  S
C430        H433   1.079       .  S
C434        C435   1.406       .  A
C434        C439   1.402       .  A
C434        C635   1.489       .  S
C435        C436   1.410       .  A
C435        H440   1.079       .  S
C436        C437   1.409       .  A
C436        C664   1.496       .  S
C437        C438   1.405       .  A
C437        H441   1.078       .  S
C438        C439   1.404       .  A
C438        C648   1.488       .  S
C439        H442   1.080       .  S
O443       Cu451   2.014   1_554  S
O443        C453   1.279       .  A
O444       Cu451   2.020       .  S
O444        C454   1.279       .  A
O445       Cu451   2.003   1_554  S
O445        C455   1.277       .  A
O446       Cu451   1.999       .  S
O446        C456   1.276       .  A
O447       Cu452   2.015       .  S
O447        C456   1.279       .  A
O448       Cu452   2.012   1_554  S
O448        C455   1.278       .  A
O449       Cu452   2.000       .  S
O449        C454   1.277       .  A
O450       Cu452   2.004   1_554  S
O450        C453   1.277       .  A
Cu451      Cu452   2.374       .  S
C453        C696   1.471       .  S
C454        C680   1.473       .  S
C455        C744   1.470       .  S
C456        C632   1.469       .  S
O457       Cu465   2.013       .  S
O457        C467   1.278       .  A
O458       Cu465   2.024       .  S
O458        C468   1.279       .  A
O459       Cu465   2.008       .  S
O459        C469   1.278       .  A
O460       Cu465   2.012       .  S
O460        C470   1.278       .  A
O461       Cu466   2.004       .  S
O461        C470   1.277       .  A
O462       Cu466   2.009       .  S
O462        C469   1.278       .  A
O463       Cu466   2.006       .  S
O463        C468   1.278       .  A
O464       Cu466   2.013       .  S
O464        C467   1.278       .  A
Cu465      Cu466   2.374       .  S
C467        C904   1.474       .  S
C468       C1144   1.476       .  S
C469        C715   1.471       .  S
C470        C763   1.470       .  S
O471       Cu479   1.999       .  S
O471        C481   1.277       .  A
O472       Cu479   2.009       .  S
O472        C482   1.277       .  A
O473       Cu479   2.011       .  S
O473        C483   1.278       .  A
O474       Cu479   2.013       .  S
O474        C484   1.278       .  A
O475       Cu480   2.018       .  S
O475        C484   1.278       .  A
O476       Cu480   2.015       .  S
O476        C483   1.278       .  A
O477       Cu480   2.010       .  S
O477        C482   1.279       .  A
O478       Cu480   2.014       .  S
O478        C481   1.278       .  A
Cu479      Cu480   2.374       .  S
C481       C1179   1.469       .  S
C482       C1083   1.473       .  S
C483       C1115   1.474       .  S
C484        C728   1.476       .  S
O485       Cu493   2.027       .  S
O485        C495   1.280       .  A
O486       Cu493   2.023       .  S
O486        C496   1.280       .  A
O487       Cu493   1.993       .  S
O487        C497   1.275       .  A
O488       Cu493   1.990       .  S
O488        C498   1.275       .  A
O489       Cu494   2.033       .  S
O489        C498   1.281       .  A
O490       Cu494   2.034       .  S
O490        C497   1.282       .  A
O491       Cu494   2.001       .  S
O491        C496   1.276       .  A
O492       Cu494   1.993       .  S
O492        C495   1.275       .  A
Cu493      Cu494   2.373       .  S
C495        C891   1.472       .  S
C496        C955   1.473       .  S
C497       C1096   1.474       .  S
C498        C923   1.473       .  S
O499       Cu507   2.007       .  S
O499        C509   1.278       .  A
O500       Cu507   2.019       .  S
O500        C510   1.279       .  A
O501       Cu507   2.013       .  S
O501        C511   1.278       .  A
O502       Cu507   2.005       .  S
O502        C512   1.277       .  A
O503       Cu508   2.013       .  S
O503        C512   1.279       .  A
O504       Cu508   2.003       .  S
O504        C511   1.277       .  A
O505       Cu508   1.995       .  S
O505        C510   1.276       .  A
O506       Cu508   2.000       .  S
O506        C509   1.276       .  A
Cu507      Cu508   2.375       .  S
C509       C1803   1.465       .  S
C510       C1035   1.470       .  S
C511       C1563   1.470       .  S
C512        C779   1.471       .  S
O513       Cu521   2.024       .  S
O513        C523   1.280       .  A
O514       Cu521   2.021       .  S
O514        C524   1.280       .  A
O515       Cu521   2.004       .  S
O515        C525   1.276       .  A
O516       Cu521   2.005       .  S
O516        C526   1.277       .  A
O517       Cu522   2.024       .  S
O517        C526   1.280       .  A
O518       Cu522   2.021       .  S
O518        C525   1.280       .  A
O519       Cu522   1.993       .  S
O519        C524   1.275       .  A
O520       Cu522   1.988       .  S
O520        C523   1.275       .  A
Cu521      Cu522   2.373       .  S
C523        C843   1.469       .  S
C524       C1835   1.470       .  S
C525       C1131   1.473       .  S
C526       C1371   1.476       .  S
O527       Cu535   2.008       .  S
O527        C537   1.278       .  A
O528       Cu535   2.008       .  S
O528        C538   1.278       .  A
O529       Cu535   2.012       .  S
O529        C539   1.279       .  A
O530       Cu535   2.009       .  S
O530        C540   1.277       .  A
O531       Cu536   2.010       .  S
O531        C540   1.278       .  A
O532       Cu536   2.006       .  S
O532        C539   1.277       .  A
O533       Cu536   2.004       .  S
O533        C538   1.277       .  A
O534       Cu536   2.005       .  S
O534        C537   1.277       .  A
Cu535      Cu536   2.375       .  S
C537       C1451   1.469       .  S
C538        C936   1.468       .  S
C539       C1787   1.472       .  S
C540        C667   1.472       .  S
O541       Cu549   1.999       .  S
O541        C551   1.277       .  A
O542       Cu549   1.996       .  S
O542        C552   1.275       .  A
O543       Cu549   2.007       .  S
O543        C553   1.278       .  A
O544       Cu549   2.010       .  S
O544        C554   1.278       .  A
O545       Cu550   2.012       .  S
O545        C554   1.278       .  A
O546       Cu550   2.013       .  S
O546        C553   1.278       .  A
O547       Cu550   2.005       .  S
O547        C552   1.278       .  A
O548       Cu550   1.998       .  S
O548        C551   1.276       .  A
Cu549      Cu550   2.376       .  S
C551       C1195   1.463       .  S
C552       C1755   1.465       .  S
C553        C827   1.471       .  S
C554       C1851   1.473       .  S
O555       Cu563   2.016       .  S
O555        C565   1.279       .  A
O556       Cu563   2.012       .  S
O556        C566   1.278       .  A
O557       Cu563   2.007       .  S
O557        C567   1.277       .  A
O558       Cu563   2.009       .  S
O558        C568   1.278       .  A
O559       Cu564   2.012       .  S
O559        C568   1.278       .  A
O560       Cu564   2.015       .  S
O560        C567   1.279       .  A
O561       Cu564   1.998       .  S
O561        C566   1.276       .  A
O562       Cu564   1.996       .  S
O562        C565   1.276       .  A
Cu563      Cu564   2.375       .  S
C565       C1816   1.470       .  S
C566        C651   1.468       .  S
C567       C1259   1.473       .  S
C568        C971   1.472       .  S
O569       Cu577   1.997       .  S
O569        C579   1.276       .  A
O570       Cu577   2.002       .  S
O570        C580   1.278       .  A
O571       Cu577   2.011       .  S
O571        C581   1.278       .  A
O572       Cu577   2.012       .  S
O572        C582   1.278       .  A
O573       Cu578   2.009       .  S
O573        C582   1.278       .  A
O574       Cu578   2.014       .  S
O574        C581   1.278       .  A
O575       Cu578   2.012       .  S
O575        C580   1.278       .  A
O576       Cu578   2.014       .  S
O576        C579   1.279       .  A
Cu577      Cu578   2.374       .  S
C579       C1643   1.469       .  S
C580       C1163   1.470       .  S
C581       C1867   1.473       .  S
C582       C1019   1.473       .  S
O583       Cu591   2.011       .  S
O583        C593   1.278       .  A
O584       Cu591   2.007       .  S
O584        C594   1.278       .  A
O585       Cu591   1.992       .  S
O585        C595   1.276       .  A
O586       Cu591   2.001       .  S
O586        C596   1.276       .  A
O587       Cu592   2.019       .  S
O587        C596   1.279       .  A
O588       Cu592   2.021       .  S
O588        C595   1.279       .  A
O589       Cu592   2.009       .  S
O589        C594   1.277       .  A
O590       Cu592   2.005       .  S
O590        C593   1.277       .  A
Cu591      Cu592   2.375       .  S
C593       C2056   1.469       .  S
C594       C1659   1.471       .  S
C595       C2107   1.469       .  S
C596       C1768   1.472       .  S
O597       Cu605   2.011       .  S
O597        C607   1.278       .  A
O598       Cu605   2.010       .  S
O598        C608   1.278       .  A
O599       Cu605   2.001       .  S
O599        C609   1.277       .  A
O600       Cu605   2.004       .  S
O600        C610   1.277       .  A
O601       Cu606   2.013       .  S
O601        C610   1.278       .  A
O602       Cu606   2.020       .  S
O602        C609   1.279       .  A
O603       Cu606   2.010       .  S
O603        C608   1.278       .  A
O604       Cu606   2.009       .  S
O604        C607   1.278       .  A
Cu605      Cu606   2.374       .  S
C607       C1387   1.472       .  S
C608       C2155   1.472       .  S
C609       C1272   1.472       .  S
C610       C2043   1.470       .  S
O611       Cu619   2.014       .  S
O611        C621   1.278       .  A
O612       Cu619   2.007       .  S
O612        C622   1.278       .  A
O613       Cu619   2.007       .  S
O613        C623   1.278       .  A
O614       Cu619   2.013       .  S
O614        C624   1.278       .  A
O615       Cu620   2.002       .  S
O615        C624   1.277       .  A
O616       Cu620   2.007       .  S
O616        C623   1.277       .  A
O617       Cu620   2.008       .  S
O617        C622   1.277       .  A
O618       Cu620   2.005       .  S
O618        C621   1.277       .  A
Cu619      Cu620   2.375       .  S
C621       C2139   1.472       .  S
C622       C1579   1.470       .  S
C623       C2091   1.468       .  S
C624       C1467   1.471       .  S
C625        C630   1.387       .  A
C625        C626   1.402       .  A
C625        S631   1.706       .  A
C626        C627   1.402       .  A
C626        H637   1.083       .  S
C627        C636   1.371       .  A
C627        C628   1.385       .  A
C628        C629   1.400       .  A
C628        S634   1.701       .  A
C629        C630   1.401       .  A
C629        H638   1.083       .  S
C630        C633   1.370       .  A
S631        C632   1.723       .  A
C632        C633   1.385       .  A
C633        H639   1.083       .  S
S634        C635   1.729       .  A
C635        C636   1.391       .  A
C636        H640   1.082       .  S
C641        C646   1.385       .  A
C641        C642   1.401       .  A
C641        S647   1.705       .  A
C642        C643   1.402       .  A
C642        H653   1.083       .  S
C643        C652   1.370       .  A
C643        C644   1.387       .  A
C644        C645   1.399       .  A
C644        S650   1.704       .  A
C645        C646   1.400       .  A
C645        H654   1.083       .  S
C646        C649   1.367       .  A
S647        C648   1.728       .  A
C648        C649   1.390       .  A
C649        H655   1.082       .  S
S650        C651   1.722       .  A
C651        C652   1.386       .  A
C652        H656   1.083       .  S
C657        C662   1.384       .  A
C657        C658   1.400       .  A
C657        S663   1.702       .  A
C658        C659   1.401       .  A
C658        H669   1.083       .  S
C659        C668   1.368       .  A
C659        C660   1.387       .  A
C660        C661   1.402       .  A
C660        S666   1.708       .  A
C661        C662   1.404       .  A
C661        H670   1.083       .  S
C662        C665   1.370       .  A
S663        C664   1.730       .  A
C664        C665   1.395       .  A
C665        H671   1.080       .  S
S666        C667   1.724       .  A
C667        C668   1.386       .  A
C668        H672   1.083       .  S
C673        C678   1.386       .  A
C673        C674   1.403       .  A
C673        S679   1.711       .  A
C674        C675   1.405       .  A
C674        H685   1.083       .  S
C675        C684   1.371       .  A
C675        C676   1.384       .  A
C676        C677   1.400       .  A
C676        S682   1.703       .  A
C677        C678   1.401       .  A
C677        H686   1.083       .  S
C678        C681   1.368       .  A
S679        C680   1.724       .  A
C680        C681   1.386       .  A
C681        H687   1.083       .  S
S682        C683   1.730       .  A
C683        C684   1.396       .  A
C684        H688   1.081       .  S
C689        C694   1.387       .  A
C689        C690   1.403       .  A
C689        S695   1.707       .  A
C690        C691   1.403       .  A
C690        H701   1.083       .  S
C691        C700   1.373       .  A
C691        C692   1.384       .  A
C692        C693   1.400       .  A
C692        S698   1.699       .  A
C693        C694   1.400       .  A
C693        H702   1.083       .  S
C694        C697   1.370       .  A
S695        C696   1.724       .  A
C696        C697   1.386       .  A
C697        H703   1.083       .  S
S698        C699   1.732       .  A
C699        C700   1.393       .  A
C700        H704   1.081       .  S
C705        C710   1.384       .  A
C705        C706   1.403       .  A
C705        S711   1.710       .  A
C706        C707   1.405       .  A
C706        H717   1.083       .  S
C707        C716   1.371       .  A
C707        C708   1.387       .  A
C708        C709   1.399       .  A
C708        S714   1.706       .  A
C709        C710   1.401       .  A
C709        H718   1.083       .  S
C710        C713   1.366       .  A
S711        C712   1.730       .  A
C712        C713   1.392       .  A
C713        H719   1.081       .  S
S714        C715   1.722       .  A
C715        C716   1.388       .  A
C716        H720   1.083       .  S
C721        C726   1.386       .  A
C721        C722   1.403       .  A
C721        S727   1.710       .  A
C722        C723   1.405       .  A
C722        H733   1.083       .  S
C723        C732   1.373       .  A
C723        C724   1.384       .  A
C724        C725   1.402       .  A
C724        S730   1.706       .  A
C725        C726   1.403       .  A
C725        H734   1.083       .  S
C726        C729   1.372       .  A
S727        C728   1.725       .  A
C728        C729   1.388       .  A
C729        H735   1.083       .  S
S730        C731   1.730       .  A
C731        C732   1.394       .  A
C732        H736   1.081       .  S
C737        C742   1.387       .  A
C737        C738   1.400       .  A
C737        S743   1.704       .  A
C738        C739   1.401       .  A
C738        H749   1.083       .  S
C739        C748   1.369       .  A
C739        C740   1.384       .  A
C740        C741   1.402       .  A
C740        S746   1.705       .  A
C741        C742   1.403       .  A
C741        H750   1.083       .  S
C742        C745   1.371       .  A
S743        C744   1.722       .  A
C744        C745   1.387       .  A
C745        H751   1.083       .  S
S746        C747   1.731       .  A
C747        C748   1.392       .  A
C748        H752   1.081       .  S
C753        C758   1.385       .  A
C753        C754   1.401       .  A
C753        S759   1.705       .  A
C754        C755   1.402       .  A
C754        H765   1.083       .  S
C755        C764   1.369       .  A
C755        C756   1.387       .  A
C756        C757   1.401       .  A
C756        S762   1.707       .  A
C757        C758   1.402       .  A
C757        H766   1.083       .  S
C758        C761   1.369       .  A
S759        C760   1.729       .  A
C760        C761   1.391       .  A
C761        H767   1.082       .  S
S762        C763   1.722       .  A
C763        C764   1.386       .  A
C764        H768   1.083       .  S
C769        C774   1.385       .  A
C769        C770   1.400       .  A
C769        S775   1.703       .  A
C770        C771   1.401       .  A
C770        H781   1.083       .  S
C771        C780   1.370       .  A
C771        C772   1.387       .  A
C772        C773   1.402       .  A
C772        S778   1.708       .  A
C773        C774   1.403       .  A
C773        H782   1.083       .  S
C774        C777   1.371       .  A
S775        C776   1.728       .  A
C776        C777   1.391       .  A
C777        H783   1.082       .  S
S778        C779   1.724       .  A
C779        C780   1.386       .  A
C780        H784   1.083       .  S
C785        C790   1.384       .  A
C785        C786   1.397       .  A
C785        S791   1.698       .  A
C786        C787   1.398       .  A
C786        H797   1.083       .  S
C787        C796   1.365       .  A
C787        C788   1.386       .  A
C788        C789   1.404       .  A
C788        S794   1.710       .  A
C789        C790   1.406       .  A
C789        H798   1.083       .  S
C790        C793   1.373       .  A
S791        C792   1.729       .  A
C792        C793   1.396       .  A
C793        H799   1.081       .  S
S794        C795   1.725       .  A
C795        C796   1.384       .  A
C796        H800   1.083       .  S
C801        C806   1.383       .  A
C801        C802   1.399       .  A
C801        S807   1.699       .  A
C802        C803   1.400       .  A
C802        H813   1.082       .  S
C803        C812   1.368       .  A
C803        C804   1.386       .  A
C804        C805   1.403       .  A
C804        S810   1.708       .  A
C805        C806   1.404       .  A
C805        H814   1.082       .  S
C806        C809   1.372       .  A
S807        C808   1.730       .  A
C808        C809   1.396       .  A
C809        H815   1.080       .  S
S810        C811   1.725       .  A
C811        C812   1.385       .  A
C812        H816   1.083       .  S
C817        C822   1.385       .  A
C817        C818   1.399       .  A
C817        S823   1.701       .  A
C818        C819   1.400       .  A
C818        H829   1.083       .  S
C819        C828   1.368       .  A
C819        C820   1.387       .  A
C820        C821   1.404       .  A
C820        S826   1.710       .  A
C821        C822   1.405       .  A
C821        H830   1.083       .  S
C822        C825   1.373       .  A
S823        C824   1.729       .  A
C824        C825   1.393       .  A
C825        H831   1.082       .  S
S826        C827   1.724       .  A
C827        C828   1.385       .  A
C828        H832   1.083       .  S
C833        C838   1.383       .  A
C833        C834   1.402       .  A
C833        S839   1.701       .  A
C834        C835   1.402       .  A
C834        H845   1.083       .  S
C835        C844   1.372       .  A
C835        C836   1.387       .  A
C836        C837   1.400       .  A
C836        S842   1.702       .  A
C837        C838   1.401       .  A
C837        H846   1.083       .  S
C838        C841   1.369       .  A
S839        C840   1.733       .  A
C840        C841   1.393       .  A
C841        H847   1.080       .  S
S842        C843   1.723       .  A
C843        C844   1.386       .  A
C844        H848   1.083       .  S
C849        C854   1.384       .  A
C849        C850   1.402       .  A
C849        S855   1.703       .  A
C850        C851   1.402       .  A
C850        H861   1.083       .  S
C851        C860   1.371       .  A
C851        C852   1.387       .  A
C852        C853   1.401       .  A
C852        S858   1.707       .  A
C853        C854   1.403       .  A
C853        H862   1.083       .  S
C854        C857   1.371       .  A
S855        C856   1.732       .  A
C856        C857   1.394       .  A
C857        H863   1.080       .  S
S858        C859   1.723       .  A
C859        C860   1.387       .  A
C860        H864   1.083       .  S
C865        C870   1.383       .  A
C865        C866   1.404       .  A
C865        S871   1.705       .  A
C866        C867   1.404       .  A
C866        H877   1.083       .  S
C867        C876   1.373       .  A
C867        C868   1.386       .  A
C868        C869   1.402       .  A
C868        S874   1.708       .  A
C869        C870   1.404       .  A
C869        H878   1.083       .  S
C870        C873   1.372       .  A
S871        C872   1.733       .  A
C872        C873   1.396       .  A
C873        H879   1.080       .  S
S874        C875   1.724       .  A
C875        C876   1.388       .  A
C876        H880   1.083       .  S
C881        C886   1.385       .  A
C881        C882   1.403       .  A
C881        S887   1.704       .  A
C882        C883   1.403       .  A
C882        H893   1.083       .  S
C883        C892   1.373       .  A
C883        C884   1.387       .  A
C884        C885   1.401       .  A
C884        S890   1.704       .  A
C885        C886   1.402       .  A
C885        H894   1.083       .  S
C886        C889   1.371       .  A
S887        C888   1.730       .  A
C888        C889   1.393       .  A
C889        H895   1.082       .  S
S890        C891   1.724       .  A
C891        C892   1.386       .  A
C892        H896   1.083       .  S
C897        C902   1.386       .  A
C897        C898   1.403       .  A
C897        S903   1.709       .  A
C898        C899   1.404       .  A
C898        H909   1.083       .  S
C899        C908   1.372       .  A
C899        C900   1.383       .  A
C900        C901   1.402       .  A
C900        S906   1.704       .  A
C901        C902   1.403       .  A
C901        H910   1.083       .  S
C902        C905   1.371       .  A
S903        C904   1.724       .  A
C904        C905   1.387       .  A
C905        H911   1.083       .  S
S906        C907   1.731       .  A
C907        C908   1.396       .  A
C908        H912   1.080       .  S
C913        C918   1.384       .  A
C913        C914   1.403       .  A
C913        S919   1.700       .  A
C914        C915   1.403       .  A
C914        H925   1.083       .  S
C915        C924   1.375       .  A
C915        C916   1.387       .  A
C916        C917   1.401       .  A
C916        S922   1.701       .  A
C917        C918   1.401       .  A
C917        H926   1.083       .  S
C918        C921   1.372       .  A
S919        C920   1.734       .  A
C920        C921   1.392       .  A
C921        H927   1.081       .  S
S922        C923   1.724       .  A
C923        C924   1.387       .  A
C924        H928   1.083       .  S
C929        C934   1.387       .  A
C929        C930   1.400       .  A
C929        S935   1.707       .  A
C930        C931   1.402       .  A
C930        H941   1.083       .  S
C931        C940   1.367       .  A
C931        C932   1.385       .  A
C932        C933   1.401       .  A
C932        S938   1.707       .  A
C933        C934   1.403       .  A
C933        H942   1.083       .  S
C934        C937   1.369       .  A
S935        C936   1.722       .  A
C936        C937   1.386       .  A
C937        H943   1.083       .  S
S938        C939   1.728       .  A
C939        C940   1.392       .  A
C940        H944   1.082       .  S
C945        C950   1.384       .  A
C945        C946   1.401       .  A
C945        S951   1.701       .  A
C946        C947   1.401       .  A
C946        H957   1.083       .  S
C947        C956   1.371       .  A
C947        C948   1.387       .  A
C948        C949   1.403       .  A
C948        S954   1.707       .  A
C949        C950   1.404       .  A
C949        H958   1.083       .  S
C950        C953   1.373       .  A
S951        C952   1.730       .  A
C952        C953   1.394       .  A
C953        H959   1.081       .  S
S954        C955   1.725       .  A
C955        C956   1.386       .  A
C956        H960   1.083       .  S
C961        C966   1.385       .  A
C961        C962   1.400       .  A
C961        S967   1.704       .  A
C962        C963   1.401       .  A
C962        H973   1.083       .  S
C963        C972   1.368       .  A
C963        C964   1.387       .  A
C964        C965   1.403       .  A
C964        S970   1.709       .  A
C965        C966   1.404       .  A
C965        H974   1.083       .  S
C966        C969   1.370       .  A
S967        C968   1.727       .  A
C968        C969   1.392       .  A
C969        H975   1.082       .  S
S970        C971   1.724       .  A
C971        C972   1.386       .  A
C972        H976   1.083       .  S
C977        C982   1.387       .  A
C977        C978   1.401       .  A
C977        S983   1.705       .  A
C978        C979   1.402       .  A
C978        H989   1.083       .  S
C979        C988   1.371       .  A
C979        C980   1.385       .  A
C980        C981   1.402       .  A
C980        S986   1.704       .  A
C981        C982   1.403       .  A
C981        H990   1.083       .  S
C982        C985   1.373       .  A
S983        C984   1.724       .  A
C984        C985   1.387       .  A
C985        H991   1.083       .  S
S986        C987   1.730       .  A
C987        C988   1.391       .  A
C988        H992   1.082       .  S
C993        C998   1.384       .  A
C993        C994   1.403       .  A
C993        S999   1.705       .  A
C994        C995   1.403       .  A
C994       H1005   1.083       .  S
C995       C1004   1.372       .  A
C995        C996   1.387       .  A
C996        C997   1.402       .  A
C996       S1002   1.707       .  A
C997        C998   1.403       .  A
C997       H1006   1.083       .  S
C998       C1001   1.371       .  A
S999       C1000   1.731       .  A
C1000      C1001   1.393       .  A
C1001      H1007   1.081       .  S
S1002      C1003   1.724       .  A
C1003      C1004   1.388       .  A
C1004      H1008   1.083       .  S
C1009      C1014   1.384       .  A
C1009      C1010   1.402       .  A
C1009      S1015   1.703       .  A
C1010      C1011   1.403       .  A
C1010      H1021   1.083       .  S
C1011      C1020   1.371       .  A
C1011      C1012   1.387       .  A
C1012      C1013   1.401       .  A
C1012      S1018   1.706       .  A
C1013      C1014   1.402       .  A
C1013      H1022   1.083       .  S
C1014      C1017   1.370       .  A
S1015      C1016   1.732       .  A
C1016      C1017   1.394       .  A
C1017      H1023   1.080       .  S
S1018      C1019   1.723       .  A
C1019      C1020   1.387       .  A
C1020      H1024   1.083       .  S
C1025      C1030   1.385       .  A
C1025      C1026   1.399       .  A
C1025      S1031   1.702       .  A
C1026      C1027   1.400       .  A
C1026      H1037   1.083       .  S
C1027      C1036   1.366       .  A
C1027      C1028   1.387       .  A
C1028      C1029   1.402       .  A
C1028      S1034   1.710       .  A
C1029      C1030   1.404       .  A
C1029      H1038   1.083       .  S
C1030      C1033   1.370       .  A
S1031      C1032   1.728       .  A
C1032      C1033   1.393       .  A
C1033      H1039   1.082       .  S
S1034      C1035   1.723       .  A
C1035      C1036   1.385       .  A
C1036      H1040   1.083       .  S
C1041      C1046   1.387       .  A
C1041      C1042   1.404       .  A
C1041      S1047   1.708       .  A
C1042      C1043   1.404       .  A
C1042      H1053   1.083       .  S
C1043      C1052   1.374       .  A
C1043      C1044   1.384       .  A
C1044      C1045   1.402       .  A
C1044      S1050   1.701       .  A
C1045      C1046   1.402       .  A
C1045      H1054   1.083       .  S
C1046      C1049   1.372       .  A
S1047      C1048   1.724       .  A
C1048      C1049   1.387       .  A
C1049      H1055   1.083       .  S
S1050      C1051   1.732       .  A
C1051      C1052   1.394       .  A
C1052      H1056   1.081       .  S
C1057      C1062   1.385       .  A
C1057      C1058   1.401       .  A
C1057      S1063   1.704       .  A
C1058      C1059   1.402       .  A
C1058      H1069   1.083       .  S
C1059      C1068   1.370       .  A
C1059      C1060   1.387       .  A
C1060      C1061   1.404       .  A
C1060      S1066   1.710       .  A
C1061      C1062   1.405       .  A
C1061      H1070   1.083       .  S
C1062      C1065   1.373       .  A
S1063      C1064   1.729       .  A
C1064      C1065   1.394       .  A
C1065      H1071   1.082       .  S
S1066      C1067   1.724       .  A
C1067      C1068   1.387       .  A
C1068      H1072   1.083       .  S
C1073      C1078   1.384       .  A
C1073      C1074   1.399       .  A
C1073      S1079   1.699       .  A
C1074      C1075   1.399       .  A
C1074      H1085   1.083       .  S
C1075      C1084   1.368       .  A
C1075      C1076   1.386       .  A
C1076      C1077   1.405       .  A
C1076      S1082   1.710       .  A
C1077      C1078   1.406       .  A
C1077      H1086   1.083       .  S
C1078      C1081   1.376       .  A
S1079      C1080   1.730       .  A
C1080      C1081   1.396       .  A
C1081      H1087   1.081       .  S
S1082      C1083   1.726       .  A
C1083      C1084   1.385       .  A
C1084      H1088   1.083       .  S
C1089      C1094   1.387       .  A
C1089      C1090   1.404       .  A
C1089      S1095   1.706       .  A
C1090      C1091   1.404       .  A
C1090      H1101   1.083       .  S
C1091      C1100   1.375       .  A
C1091      C1092   1.385       .  A
C1092      C1093   1.402       .  A
C1092      S1098   1.702       .  A
C1093      C1094   1.402       .  A
C1093      H1102   1.083       .  S
C1094      C1097   1.374       .  A
S1095      C1096   1.726       .  A
C1096      C1097   1.386       .  A
C1097      H1103   1.083       .  S
S1098      C1099   1.731       .  A
C1099      C1100   1.393       .  A
C1100      H1104   1.082       .  S
C1105      C1110   1.384       .  A
C1105      C1106   1.401       .  A
C1105      S1111   1.703       .  A
C1106      C1107   1.402       .  A
C1106      H1117   1.083       .  S
C1107      C1116   1.370       .  A
C1107      C1108   1.386       .  A
C1108      C1109   1.403       .  A
C1108      S1114   1.710       .  A
C1109      C1110   1.405       .  A
C1109      H1118   1.083       .  S
C1110      C1113   1.373       .  A
S1111      C1112   1.730       .  A
C1112      C1113   1.395       .  A
C1113      H1119   1.081       .  S
S1114      C1115   1.725       .  A
C1115      C1116   1.387       .  A
C1116      H1120   1.083       .  S
C1121      C1126   1.385       .  A
C1121      C1122   1.401       .  A
C1121      S1127   1.703       .  A
C1122      C1123   1.401       .  A
C1122      H1133   1.083       .  S
C1123      C1132   1.370       .  A
C1123      C1124   1.387       .  A
C1124      C1125   1.404       .  A
C1124      S1130   1.709       .  A
C1125      C1126   1.405       .  A
C1125      H1134   1.083       .  S
C1126      C1129   1.373       .  A
S1127      C1128   1.729       .  A
C1128      C1129   1.393       .  A
C1129      H1135   1.082       .  S
S1130      C1131   1.725       .  A
C1131      C1132   1.385       .  A
C1132      H1136   1.083       .  S
C1137      C1142   1.386       .  A
C1137      C1138   1.406       .  A
C1137      S1143   1.713       .  A
C1138      C1139   1.407       .  A
C1138      H1149   1.083       .  S
C1139      C1148   1.375       .  A
C1139      C1140   1.384       .  A
C1140      C1141   1.399       .  A
C1140      S1146   1.701       .  A
C1141      C1142   1.400       .  A
C1141      H1150   1.083       .  S
C1142      C1145   1.368       .  A
S1143      C1144   1.726       .  A
C1144      C1145   1.386       .  A
C1145      H1151   1.083       .  S
S1146      C1147   1.730       .  A
C1147      C1148   1.396       .  A
C1148      H1152   1.081       .  S
C1153      C1158   1.384       .  A
C1153      C1154   1.399       .  A
C1153      S1159   1.702       .  A
C1154      C1155   1.400       .  A
C1154      H1165   1.083       .  S
C1155      C1164   1.367       .  A
C1155      C1156   1.387       .  A
C1156      C1157   1.403       .  A
C1156      S1162   1.710       .  A
C1157      C1158   1.405       .  A
C1157      H1166   1.083       .  S
C1158      C1161   1.371       .  A
S1159      C1160   1.729       .  A
C1160      C1161   1.396       .  A
C1161      H1167   1.081       .  S
S1162      C1163   1.724       .  A
C1163      C1164   1.385       .  A
C1164      H1168   1.083       .  S
C1169      C1174   1.384       .  A
C1169      C1170   1.397       .  A
C1169      S1175   1.697       .  A
C1170      C1171   1.399       .  A
C1170      H1181   1.083       .  S
C1171      C1180   1.365       .  A
C1171      C1172   1.387       .  A
C1172      C1173   1.402       .  A
C1172      S1178   1.709       .  A
C1173      C1174   1.404       .  A
C1173      H1182   1.083       .  S
C1174      C1177   1.370       .  A
S1175      C1176   1.730       .  A
C1176      C1177   1.394       .  A
C1177      H1183   1.080       .  S
S1178      C1179   1.724       .  A
C1179      C1180   1.385       .  A
C1180      H1184   1.083       .  S
C1185      C1190   1.384       .  A
C1185      C1186   1.398       .  A
C1185      S1191   1.700       .  A
C1186      C1187   1.399       .  A
C1186      H1197   1.083       .  S
C1187      C1196   1.365       .  A
C1187      C1188   1.387       .  A
C1188      C1189   1.398       .  A
C1188      S1194   1.704       .  A
C1189      C1190   1.400       .  A
C1189      H1198   1.083       .  S
C1190      C1193   1.365       .  A
S1191      C1192   1.731       .  A
C1192      C1193   1.393       .  A
C1193      H1199   1.080       .  S
S1194      C1195   1.721       .  A
C1195      C1196   1.384       .  A
C1196      H1200   1.083       .  S
C1201      C1206   1.387       .  A
C1201      C1202   1.400       .  A
C1201      S1207   1.705       .  A
C1202      C1203   1.401       .  A
C1202      H1213   1.083       .  S
C1203      C1212   1.369       .  A
C1203      C1204   1.386       .  A
C1204      C1205   1.402       .  A
C1204      S1210   1.706       .  A
C1205      C1206   1.403       .  A
C1205      H1214   1.083       .  S
C1206      C1209   1.371       .  A
S1207      C1208   1.723       .  A
C1208      C1209   1.386       .  A
C1209      H1215   1.083       .  S
S1210      C1211   1.728       .  A
C1211      C1212   1.389       .  A
C1212      H1216   1.083       .  S
C1217      C1222   1.387       .  A
C1217      C1218   1.400       .  A
C1217      S1223   1.704       .  A
C1218      C1219   1.401       .  A
C1218      H1229   1.083       .  S
C1219      C1228   1.368       .  A
C1219      C1220   1.384       .  A
C1220      C1221   1.398       .  A
C1220      S1226   1.698       .  A
C1221      C1222   1.398       .  A
C1221      H1230   1.083       .  S
C1222      C1225   1.366       .  A
S1223      C1224   1.723       .  A
C1224      C1225   1.383       .  A
C1225      H1231   1.083       .  S
S1226      C1227   1.729       .  A
C1227      C1228   1.392       .  A
C1228      H1232   1.081       .  S
C1233      C1238   1.384       .  A
C1233      C1234   1.402       .  A
C1233      S1239   1.700       .  A
C1234      C1235   1.402       .  A
C1234      H1245   1.083       .  S
C1235      C1244   1.372       .  A
C1235      C1236   1.387       .  A
C1236      C1237   1.402       .  A
C1236      S1242   1.704       .  A
C1237      C1238   1.402       .  A
C1237      H1246   1.083       .  S
C1238      C1241   1.373       .  A
S1239      C1240   1.733       .  A
C1240      C1241   1.395       .  A
C1241      H1247   1.080       .  S
S1242      C1243   1.724       .  A
C1243      C1244   1.386       .  A
C1244      H1248   1.083       .  S
C1249      C1254   1.383       .  A
C1249      C1250   1.404       .  A
C1249      S1255   1.709       .  A
C1250      C1251   1.406       .  A
C1250      H1261   1.083       .  S
C1251      C1260   1.372       .  A
C1251      C1252   1.387       .  A
C1252      C1253   1.398       .  A
C1252      S1258   1.705       .  A
C1253      C1254   1.400       .  A
C1253      H1262   1.083       .  S
C1254      C1257   1.366       .  A
S1255      C1256   1.733       .  A
C1256      C1257   1.394       .  A
C1257      H1263   1.080       .  S
S1258      C1259   1.721       .  A
C1259      C1260   1.390       .  A
C1260      H1264   1.083       .  S
C1265      C1270   1.386       .  A
C1265      C1266   1.404       .  A
C1265      S1271   1.711       .  A
C1266      C1267   1.405       .  A
C1266      H1277   1.083       .  S
C1267      C1276   1.373       .  A
C1267      C1268   1.384       .  A
C1268      C1269   1.400       .  A
C1268      S1274   1.703       .  A
C1269      C1270   1.401       .  A
C1269      H1278   1.083       .  S
C1270      C1273   1.368       .  A
S1271      C1272   1.724       .  A
C1272      C1273   1.386       .  A
C1273      H1279   1.083       .  S
S1274      C1275   1.730       .  A
C1275      C1276   1.395       .  A
C1276      H1280   1.081       .  S
C1281      C1286   1.385       .  A
C1281      C1282   1.400       .  A
C1281      S1287   1.699       .  A
C1282      C1283   1.400       .  A
C1282      H1293   1.083       .  S
C1283      C1292   1.368       .  A
C1283      C1284   1.387       .  A
C1284      C1285   1.400       .  A
C1284      S1290   1.703       .  A
C1285      C1286   1.401       .  A
C1285      H1294   1.083       .  S
C1286      C1289   1.370       .  A
S1287      C1288   1.731       .  A
C1288      C1289   1.391       .  A
C1289      H1295   1.081       .  S
S1290      C1291   1.722       .  A
C1291      C1292   1.385       .  A
C1292      H1296   1.083       .  S
C1297      C1302   1.387       .  A
C1297      C1298   1.403       .  A
C1297      S1303   1.709       .  A
C1298      C1299   1.404       .  A
C1298      H1309   1.083       .  S
C1299      C1308   1.371       .  A
C1299      C1300   1.385       .  A
C1300      C1301   1.397       .  A
C1300      S1306   1.699       .  A
C1301      C1302   1.398       .  A
C1301      H1310   1.083       .  S
C1302      C1305   1.366       .  A
S1303      C1304   1.724       .  A
C1304      C1305   1.384       .  A
C1305      H1311   1.083       .  S
S1306      C1307   1.728       .  A
C1307      C1308   1.392       .  A
C1308      H1312   1.082       .  S
C1313      C1318   1.387       .  A
C1313      C1314   1.400       .  A
C1313      S1319   1.706       .  A
C1314      C1315   1.402       .  A
C1314      H1325   1.083       .  S
C1315      C1324   1.368       .  A
C1315      C1316   1.386       .  A
C1316      C1317   1.398       .  A
C1316      S1322   1.701       .  A
C1317      C1318   1.399       .  A
C1317      H1326   1.083       .  S
C1318      C1321   1.366       .  A
S1319      C1320   1.722       .  A
C1320      C1321   1.384       .  A
C1321      H1327   1.083       .  S
S1322      C1323   1.726       .  A
C1323      C1324   1.389       .  A
C1324      H1328   1.083       .  S
C1329      C1334   1.385       .  A
C1329      C1330   1.399       .  A
C1329      S1335   1.703       .  A
C1330      C1331   1.401       .  A
C1330      H1341   1.083       .  S
C1331      C1340   1.366       .  A
C1331      C1332   1.387       .  A
C1332      C1333   1.399       .  A
C1332      S1338   1.706       .  A
C1333      C1334   1.401       .  A
C1333      H1342   1.083       .  S
C1334      C1337   1.366       .  A
S1335      C1336   1.728       .  A
C1336      C1337   1.391       .  A
C1337      H1343   1.082       .  S
S1338      C1339   1.721       .  A
C1339      C1340   1.385       .  A
C1340      H1344   1.083       .  S
C1345      C1350   1.387       .  A
C1345      C1346   1.403       .  A
C1345      S1351   1.709       .  A
C1346      C1347   1.404       .  A
C1346      H1357   1.083       .  S
C1347      C1356   1.372       .  A
C1347      C1348   1.385       .  A
C1348      C1349   1.399       .  A
C1348      S1354   1.701       .  A
C1349      C1350   1.400       .  A
C1349      H1358   1.083       .  S
C1350      C1353   1.367       .  A
S1351      C1352   1.724       .  A
C1352      C1353   1.385       .  A
C1353      H1359   1.083       .  S
S1354      C1355   1.729       .  A
C1355      C1356   1.392       .  A
C1356      H1360   1.082       .  S
C1361      C1366   1.384       .  A
C1361      C1362   1.404       .  A
C1361      S1367   1.705       .  A
C1362      C1363   1.405       .  A
C1362      H1373   1.083       .  S
C1363      C1372   1.375       .  A
C1363      C1364   1.387       .  A
C1364      C1365   1.401       .  A
C1364      S1370   1.705       .  A
C1365      C1366   1.402       .  A
C1365      H1374   1.083       .  S
C1366      C1369   1.371       .  A
S1367      C1368   1.733       .  A
C1368      C1369   1.394       .  A
C1369      H1375   1.080       .  S
S1370      C1371   1.724       .  A
C1371      C1372   1.389       .  A
C1372      H1376   1.083       .  S
C1377      C1382   1.384       .  A
C1377      C1378   1.403       .  A
C1377      S1383   1.704       .  A
C1378      C1379   1.403       .  A
C1378      H1389   1.083       .  S
C1379      C1388   1.371       .  A
C1379      C1380   1.387       .  A
C1380      C1381   1.400       .  A
C1380      S1386   1.705       .  A
C1381      C1382   1.401       .  A
C1381      H1390   1.083       .  S
C1382      C1385   1.369       .  A
S1383      C1384   1.732       .  A
C1384      C1385   1.392       .  A
C1385      H1391   1.081       .  S
S1386      C1387   1.722       .  A
C1387      C1388   1.388       .  A
C1388      H1392   1.083       .  S
C1393      C1398   1.384       .  A
C1393      C1394   1.402       .  A
C1393      S1399   1.706       .  A
C1394      C1395   1.403       .  A
C1394      H1405   1.082       .  S
C1395      C1404   1.370       .  A
C1395      C1396   1.387       .  A
C1396      C1397   1.400       .  A
C1396      S1402   1.706       .  A
C1397      C1398   1.402       .  A
C1397      H1406   1.083       .  S
C1398      C1401   1.368       .  A
S1399      C1400   1.729       .  A
C1400      C1401   1.393       .  A
C1401      H1407   1.081       .  S
S1402      C1403   1.723       .  A
C1403      C1404   1.386       .  A
C1404      H1408   1.083       .  S
C1409      C1414   1.387       .  A
C1409      C1410   1.405       .  A
C1409      S1415   1.710       .  A
C1410      C1411   1.405       .  A
C1410      H1421   1.083       .  S
C1411      C1420   1.373       .  A
C1411      C1412   1.385       .  A
C1412      C1413   1.397       .  A
C1412      S1418   1.697       .  A
C1413      C1414   1.397       .  A
C1413      H1422   1.083       .  S
C1414      C1417   1.365       .  A
S1415      C1416   1.725       .  A
C1416      C1417   1.383       .  A
C1417      H1423   1.083       .  S
S1418      C1419   1.728       .  A
C1419      C1420   1.394       .  A
C1420      H1424   1.082       .  S
C1425      C1430   1.384       .  A
C1425      C1426   1.401       .  A
C1425      S1431   1.704       .  A
C1426      C1427   1.402       .  A
C1426      H1437   1.083       .  S
C1427      C1436   1.369       .  A
C1427      C1428   1.387       .  A
C1428      C1429   1.398       .  A
C1428      S1434   1.703       .  A
C1429      C1430   1.400       .  A
C1429      H1438   1.083       .  S
C1430      C1433   1.366       .  A
S1431      C1432   1.730       .  A
C1432      C1433   1.391       .  A
C1433      H1439   1.081       .  S
S1434      C1435   1.721       .  A
C1435      C1436   1.386       .  A
C1436      H1440   1.083       .  S
C1441      C1446   1.383       .  A
C1441      C1442   1.402       .  A
C1441      S1447   1.703       .  A
C1442      C1443   1.403       .  A
C1442      H1453   1.083       .  S
C1443      C1452   1.370       .  A
C1443      C1444   1.387       .  A
C1444      C1445   1.399       .  A
C1444      S1450   1.704       .  A
C1445      C1446   1.401       .  A
C1445      H1454   1.083       .  S
C1446      C1449   1.367       .  A
S1447      C1448   1.732       .  A
C1448      C1449   1.394       .  A
C1449      H1455   1.080       .  S
S1450      C1451   1.722       .  A
C1451      C1452   1.387       .  A
C1452      H1456   1.083       .  S
C1457      C1462   1.384       .  A
C1457      C1458   1.398       .  A
C1457      S1463   1.699       .  A
C1458      C1459   1.399       .  A
C1458      H1469   1.083       .  S
C1459      C1468   1.367       .  A
C1459      C1460   1.387       .  A
C1460      C1461   1.403       .  A
C1460      S1466   1.709       .  A
C1461      C1462   1.404       .  A
C1461      H1470   1.083       .  S
C1462      C1465   1.371       .  A
S1463      C1464   1.731       .  A
C1464      C1465   1.395       .  A
C1465      H1471   1.080       .  S
S1466      C1467   1.724       .  A
C1467      C1468   1.385       .  A
C1468      H1472   1.083       .  S
C1473      C1478   1.385       .  A
C1473      C1474   1.401       .  A
C1473      S1479   1.703       .  A
C1474      C1475   1.402       .  A
C1474      H1485   1.083       .  S
C1475      C1484   1.370       .  A
C1475      C1476   1.387       .  A
C1476      C1477   1.400       .  A
C1476      S1482   1.705       .  A
C1477      C1478   1.401       .  A
C1477      H1486   1.083       .  S
C1478      C1481   1.369       .  A
S1479      C1480   1.729       .  A
C1480      C1481   1.391       .  A
C1481      H1487   1.082       .  S
S1482      C1483   1.722       .  A
C1483      C1484   1.386       .  A
C1484      H1488   1.083       .  S
C1489      C1494   1.385       .  A
C1489      C1490   1.401       .  A
C1489      S1495   1.700       .  A
C1490      C1491   1.401       .  A
C1490      H1501   1.083       .  S
C1491      C1500   1.372       .  A
C1491      C1492   1.387       .  A
C1492      C1493   1.402       .  A
C1492      S1498   1.705       .  A
C1493      C1494   1.402       .  A
C1493      H1502   1.083       .  S
C1494      C1497   1.373       .  A
S1495      C1496   1.731       .  A
C1496      C1497   1.392       .  A
C1497      H1503   1.081       .  S
S1498      C1499   1.724       .  A
C1499      C1500   1.386       .  A
C1500      H1504   1.083       .  S
C1505      C1510   1.387       .  A
C1505      C1506   1.400       .  A
C1505      S1511   1.708       .  A
C1506      C1507   1.402       .  A
C1506      H1517   1.083       .  S
C1507      C1516   1.368       .  A
C1507      C1508   1.384       .  A
C1508      C1509   1.402       .  A
C1508      S1514   1.706       .  A
C1509      C1510   1.403       .  A
C1509      H1518   1.083       .  S
C1510      C1513   1.369       .  A
S1511      C1512   1.722       .  A
C1512      C1513   1.388       .  A
C1513      H1519   1.083       .  S
S1514      C1515   1.731       .  A
C1515      C1516   1.393       .  A
C1516      H1520   1.081       .  S
C1521      C1526   1.387       .  A
C1521      C1522   1.401       .  A
C1521      S1527   1.706       .  A
C1522      C1523   1.402       .  A
C1522      H1533   1.083       .  S
C1523      C1532   1.371       .  A
C1523      C1524   1.384       .  A
C1524      C1525   1.402       .  A
C1524      S1530   1.702       .  A
C1525      C1526   1.402       .  A
C1525      H1534   1.083       .  S
C1526      C1529   1.371       .  A
S1527      C1528   1.723       .  A
C1528      C1529   1.387       .  A
C1529      H1535   1.083       .  S
S1530      C1531   1.732       .  A
C1531      C1532   1.394       .  A
C1532      H1536   1.080       .  S
C1537      C1542   1.384       .  A
C1537      C1538   1.403       .  A
C1537      S1543   1.706       .  A
C1538      C1539   1.403       .  A
C1538      H1549   1.083       .  S
C1539      C1548   1.373       .  A
C1539      C1540   1.387       .  A
C1540      C1541   1.400       .  A
C1540      S1546   1.704       .  A
C1541      C1542   1.401       .  A
C1541      H1550   1.083       .  S
C1542      C1545   1.369       .  A
S1543      C1544   1.730       .  A
C1544      C1545   1.392       .  A
C1545      H1551   1.081       .  S
S1546      C1547   1.723       .  A
C1547      C1548   1.387       .  A
C1548      H1552   1.083       .  S
C1553      C1558   1.385       .  A
C1553      C1554   1.401       .  A
C1553      S1559   1.705       .  A
C1554      C1555   1.402       .  A
C1554      H1565   1.083       .  S
C1555      C1564   1.369       .  A
C1555      C1556   1.387       .  A
C1556      C1557   1.401       .  A
C1556      S1562   1.707       .  A
C1557      C1558   1.402       .  A
C1557      H1566   1.083       .  S
C1558      C1561   1.368       .  A
S1559      C1560   1.728       .  A
C1560      C1561   1.392       .  A
C1561      H1567   1.082       .  S
S1562      C1563   1.723       .  A
C1563      C1564   1.386       .  A
C1564      H1568   1.083       .  S
C1569      C1574   1.385       .  A
C1569      C1570   1.400       .  A
C1569      S1575   1.702       .  A
C1570      C1571   1.401       .  A
C1570      H1581   1.083       .  S
C1571      C1580   1.369       .  A
C1571      C1572   1.387       .  A
C1572      C1573   1.401       .  A
C1572      S1578   1.707       .  A
C1573      C1574   1.402       .  A
C1573      H1582   1.083       .  S
C1574      C1577   1.370       .  A
S1575      C1576   1.728       .  A
C1576      C1577   1.391       .  A
C1577      H1583   1.082       .  S
S1578      C1579   1.723       .  A
C1579      C1580   1.386       .  A
C1580      H1584   1.083       .  S
C1585      C1590   1.387       .  A
C1585      C1586   1.401       .  A
C1585      S1591   1.706       .  A
C1586      C1587   1.402       .  A
C1586      H1597   1.083       .  S
C1587      C1596   1.370       .  A
C1587      C1588   1.385       .  A
C1588      C1589   1.401       .  A
C1588      S1594   1.702       .  A
C1589      C1590   1.401       .  A
C1589      H1598   1.083       .  S
C1590      C1593   1.369       .  A
S1591      C1592   1.722       .  A
C1592      C1593   1.386       .  A
C1593      H1599   1.083       .  S
S1594      C1595   1.729       .  A
C1595      C1596   1.391       .  A
C1596      H1600   1.082       .  S
C1601      C1606   1.384       .  A
C1601      C1602   1.402       .  A
C1601      S1607   1.706       .  A
C1602      C1603   1.403       .  A
C1602      H1613   1.083       .  S
C1603      C1612   1.371       .  A
C1603      C1604   1.387       .  A
C1604      C1605   1.402       .  A
C1604      S1610   1.708       .  A
C1605      C1606   1.403       .  A
C1605      H1614   1.083       .  S
C1606      C1609   1.371       .  A
S1607      C1608   1.730       .  A
C1608      C1609   1.393       .  A
C1609      H1615   1.081       .  S
S1610      C1611   1.724       .  A
C1611      C1612   1.387       .  A
C1612      H1616   1.083       .  S
C1617      C1622   1.385       .  A
C1617      C1618   1.399       .  A
C1617      S1623   1.702       .  A
C1618      C1619   1.400       .  A
C1618      H1629   1.083       .  S
C1619      C1628   1.366       .  A
C1619      C1620   1.387       .  A
C1620      C1621   1.401       .  A
C1620      S1626   1.708       .  A
C1621      C1622   1.402       .  A
C1621      H1630   1.083       .  S
C1622      C1625   1.368       .  A
S1623      C1624   1.728       .  A
C1624      C1625   1.391       .  A
C1625      H1631   1.082       .  S
S1626      C1627   1.722       .  A
C1627      C1628   1.385       .  A
C1628      H1632   1.083       .  S
C1633      C1638   1.384       .  A
C1633      C1634   1.400       .  A
C1633      S1639   1.698       .  A
C1634      C1635   1.400       .  A
C1634      H1645   1.083       .  S
C1635      C1644   1.369       .  A
C1635      C1636   1.387       .  A
C1636      C1637   1.401       .  A
C1636      S1642   1.704       .  A
C1637      C1638   1.402       .  A
C1637      H1646   1.083       .  S
C1638      C1641   1.371       .  A
S1639      C1640   1.732       .  A
C1640      C1641   1.393       .  A
C1641      H1647   1.080       .  S
S1642      C1643   1.723       .  A
C1643      C1644   1.385       .  A
C1644      H1648   1.083       .  S
C1649      C1654   1.383       .  A
C1649      C1650   1.404       .  A
C1649      S1655   1.710       .  A
C1650      C1651   1.406       .  A
C1650      H1661   1.083       .  S
C1651      C1660   1.372       .  A
C1651      C1652   1.387       .  A
C1652      C1653   1.397       .  A
C1652      S1658   1.704       .  A
C1653      C1654   1.399       .  A
C1653      H1662   1.083       .  S
C1654      C1657   1.364       .  A
S1655      C1656   1.732       .  A
C1656      C1657   1.393       .  A
C1657      H1663   1.080       .  S
S1658      C1659   1.721       .  A
C1659      C1660   1.389       .  A
C1660      H1664   1.083       .  S
C1665      C1670   1.385       .  A
C1665      C1666   1.401       .  A
C1665      S1671   1.704       .  A
C1666      C1667   1.402       .  A
C1666      H1677   1.083       .  S
C1667      C1676   1.371       .  A
C1667      C1668   1.387       .  A
C1668      C1669   1.403       .  A
C1668      S1674   1.709       .  A
C1669      C1670   1.404       .  A
C1669      H1678   1.083       .  S
C1670      C1673   1.372       .  A
S1671      C1672   1.729       .  A
C1672      C1673   1.393       .  A
C1673      H1679   1.082       .  S
S1674      C1675   1.724       .  A
C1675      C1676   1.386       .  A
C1676      H1680   1.083       .  S
C1681      C1686   1.384       .  A
C1681      C1682   1.400       .  A
C1681      S1687   1.701       .  A
C1682      C1683   1.401       .  A
C1682      H1693   1.083       .  S
C1683      C1692   1.369       .  A
C1683      C1684   1.386       .  A
C1684      C1685   1.404       .  A
C1684      S1690   1.710       .  A
C1685      C1686   1.405       .  A
C1685      H1694   1.083       .  S
C1686      C1689   1.373       .  A
S1687      C1688   1.730       .  A
C1688      C1689   1.395       .  A
C1689      H1695   1.081       .  S
S1690      C1691   1.725       .  A
C1691      C1692   1.386       .  A
C1692      H1696   1.083       .  S
C1697      C1702   1.383       .  A
C1697      C1698   1.402       .  A
C1697      S1703   1.705       .  A
C1698      C1699   1.403       .  A
C1698      H1709   1.082       .  S
C1699      C1708   1.371       .  A
C1699      C1700   1.386       .  A
C1700      C1701   1.404       .  A
C1700      S1706   1.710       .  A
C1701      C1702   1.406       .  A
C1701      H1710   1.082       .  S
C1702      C1705   1.374       .  A
S1703      C1704   1.730       .  A
C1704      C1705   1.397       .  A
C1705      H1711   1.080       .  S
S1706      C1707   1.725       .  A
C1707      C1708   1.387       .  A
C1708      H1712   1.082       .  S
C1713      C1718   1.387       .  A
C1713      C1714   1.399       .  A
C1713      S1719   1.706       .  A
C1714      C1715   1.401       .  A
C1714      H1725   1.083       .  S
C1715      C1724   1.367       .  A
C1715      C1716   1.383       .  A
C1716      C1717   1.404       .  A
C1716      S1722   1.708       .  A
C1717      C1718   1.405       .  A
C1717      H1726   1.083       .  S
C1718      C1721   1.372       .  A
S1719      C1720   1.722       .  A
C1720      C1721   1.389       .  A
C1721      H1727   1.083       .  S
S1722      C1723   1.732       .  A
C1723      C1724   1.394       .  A
C1724      H1728   1.080       .  S
C1729      C1734   1.387       .  A
C1729      C1730   1.402       .  A
C1729      S1735   1.708       .  A
C1730      C1731   1.404       .  A
C1730      H1741   1.083       .  S
C1731      C1740   1.371       .  A
C1731      C1732   1.384       .  A
C1732      C1733   1.403       .  A
C1732      S1738   1.705       .  A
C1733      C1734   1.403       .  A
C1733      H1742   1.083       .  S
C1734      C1737   1.372       .  A
S1735      C1736   1.724       .  A
C1736      C1737   1.388       .  A
C1737      H1743   1.083       .  S
S1738      C1739   1.731       .  A
C1739      C1740   1.395       .  A
C1740      H1744   1.081       .  S
C1745      C1750   1.385       .  A
C1745      C1746   1.397       .  A
C1745      S1751   1.698       .  A
C1746      C1747   1.397       .  A
C1746      H1757   1.083       .  S
C1747      C1756   1.365       .  A
C1747      C1748   1.387       .  A
C1748      C1749   1.402       .  A
C1748      S1754   1.707       .  A
C1749      C1750   1.403       .  A
C1749      H1758   1.083       .  S
C1750      C1753   1.371       .  A
S1751      C1752   1.727       .  A
C1752      C1753   1.391       .  A
C1753      H1759   1.082       .  S
S1754      C1755   1.724       .  A
C1755      C1756   1.382       .  A
C1756      H1760   1.083       .  S
C1761      C1766   1.387       .  A
C1761      C1762   1.402       .  A
C1761      S1767   1.705       .  A
C1762      C1763   1.402       .  A
C1762      H1773   1.083       .  S
C1763      C1772   1.372       .  A
C1763      C1764   1.384       .  A
C1764      C1765   1.402       .  A
C1764      S1770   1.700       .  A
C1765      C1766   1.402       .  A
C1765      H1774   1.083       .  S
C1766      C1769   1.372       .  A
S1767      C1768   1.724       .  A
C1768      C1769   1.386       .  A
C1769      H1775   1.083       .  S
S1770      C1771   1.733       .  A
C1771      C1772   1.393       .  A
C1772      H1776   1.081       .  S
C1777      C1782   1.384       .  A
C1777      C1778   1.398       .  A
C1777      S1783   1.695       .  A
C1778      C1779   1.398       .  A
C1778      H1789   1.083       .  S
C1779      C1788   1.368       .  A
C1779      C1780   1.387       .  A
C1780      C1781   1.405       .  A
C1780      S1786   1.708       .  A
C1781      C1782   1.405       .  A
C1781      H1790   1.083       .  S
C1782      C1785   1.376       .  A
S1783      C1784   1.732       .  A
C1784      C1785   1.394       .  A
C1785      H1791   1.081       .  S
S1786      C1787   1.725       .  A
C1787      C1788   1.384       .  A
C1788      H1792   1.083       .  S
C1793      C1798   1.386       .  A
C1793      C1794   1.398       .  A
C1793      S1799   1.698       .  A
C1794      C1795   1.398       .  A
C1794      H1805   1.083       .  S
C1795      C1804   1.367       .  A
C1795      C1796   1.387       .  A
C1796      C1797   1.402       .  A
C1796      S1802   1.706       .  A
C1797      C1798   1.402       .  A
C1797      H1806   1.083       .  S
C1798      C1801   1.371       .  A
S1799      C1800   1.728       .  A
C1800      C1801   1.391       .  A
C1801      H1807   1.082       .  S
S1802      C1803   1.723       .  A
C1803      C1804   1.383       .  A
C1804      H1808   1.083       .  S
C1809      C1814   1.387       .  A
C1809      C1810   1.398       .  A
C1809      S1815   1.703       .  A
C1810      C1811   1.400       .  A
C1810      H1821   1.083       .  S
C1811      C1820   1.367       .  A
C1811      C1812   1.383       .  A
C1812      C1813   1.403       .  A
C1812      S1818   1.706       .  A
C1813      C1814   1.404       .  A
C1813      H1822   1.083       .  S
C1814      C1817   1.372       .  A
S1815      C1816   1.722       .  A
C1816      C1817   1.387       .  A
C1817      H1823   1.083       .  S
S1818      C1819   1.733       .  A
C1819      C1820   1.393       .  A
C1820      H1824   1.080       .  S
C1825      C1830   1.384       .  A
C1825      C1826   1.401       .  A
C1825      S1831   1.700       .  A
C1826      C1827   1.401       .  A
C1826      H1837   1.083       .  S
C1827      C1836   1.371       .  A
C1827      C1828   1.387       .  A
C1828      C1829   1.402       .  A
C1828      S1834   1.704       .  A
C1829      C1830   1.402       .  A
C1829      H1838   1.083       .  S
C1830      C1833   1.371       .  A
S1831      C1832   1.730       .  A
C1832      C1833   1.393       .  A
C1833      H1839   1.081       .  S
S1834      C1835   1.724       .  A
C1835      C1836   1.385       .  A
C1836      H1840   1.083       .  S
C1841      C1846   1.384       .  A
C1841      C1842   1.402       .  A
C1841      S1847   1.704       .  A
C1842      C1843   1.402       .  A
C1842      H1853   1.083       .  S
C1843      C1852   1.371       .  A
C1843      C1844   1.387       .  A
C1844      C1845   1.402       .  A
C1844      S1850   1.707       .  A
C1845      C1846   1.403       .  A
C1845      H1854   1.083       .  S
C1846      C1849   1.371       .  A
S1847      C1848   1.731       .  A
C1848      C1849   1.394       .  A
C1849      H1855   1.081       .  S
S1850      C1851   1.723       .  A
C1851      C1852   1.387       .  A
C1852      H1856   1.083       .  S
C1857      C1862   1.385       .  A
C1857      C1858   1.401       .  A
C1857      S1863   1.704       .  A
C1858      C1859   1.402       .  A
C1858      H1869   1.083       .  S
C1859      C1868   1.370       .  A
C1859      C1860   1.387       .  A
C1860      C1861   1.403       .  A
C1860      S1866   1.709       .  A
C1861      C1862   1.404       .  A
C1861      H1870   1.083       .  S
C1862      C1865   1.372       .  A
S1863      C1864   1.730       .  A
C1864      C1865   1.393       .  A
C1865      H1871   1.082       .  S
S1866      C1867   1.724       .  A
C1867      C1868   1.387       .  A
C1868      H1872   1.083       .  S
C1873      C1878   1.385       .  A
C1873      C1874   1.400       .  A
C1873      S1879   1.701       .  A
C1874      C1875   1.400       .  A
C1874      H1885   1.083       .  S
C1875      C1884   1.371       .  A
C1875      C1876   1.387       .  A
C1876      C1877   1.403       .  A
C1876      S1882   1.705       .  A
C1877      C1878   1.403       .  A
C1877      H1886   1.083       .  S
C1878      C1881   1.372       .  A
S1879      C1880   1.728       .  A
C1880      C1881   1.391       .  A
C1881      H1887   1.082       .  S
S1882      C1883   1.725       .  A
C1883      C1884   1.384       .  A
C1884      H1888   1.083       .  S
C1889      C1894   1.384       .  A
C1889      C1890   1.405       .  A
C1889      S1895   1.706       .  A
C1890      C1891   1.405       .  A
C1890      H1901   1.083       .  S
C1891      C1900   1.376       .  A
C1891      C1892   1.387       .  A
C1892      C1893   1.400       .  A
C1892      S1898   1.702       .  A
C1893      C1894   1.401       .  A
C1893      H1902   1.083       .  S
C1894      C1897   1.369       .  A
S1895      C1896   1.733       .  A
C1896      C1897   1.393       .  A
C1897      H1903   1.080       .  S
S1898      C1899   1.724       .  A
C1899      C1900   1.388       .  A
C1900      H1904   1.083       .  S
C1905      C1910   1.387       .  A
C1905      C1906   1.400       .  A
C1905      S1911   1.707       .  A
C1906      C1907   1.402       .  A
C1906      H1917   1.083       .  S
C1907      C1916   1.367       .  A
C1907      C1908   1.384       .  A
C1908      C1909   1.402       .  A
C1908      S1914   1.707       .  A
C1909      C1910   1.403       .  A
C1909      H1918   1.083       .  S
C1910      C1913   1.369       .  A
S1911      C1912   1.722       .  A
C1912      C1913   1.387       .  A
C1913      H1919   1.083       .  S
S1914      C1915   1.729       .  A
C1915      C1916   1.392       .  A
C1916      H1920   1.082       .  S
C1921      C1926   1.387       .  A
C1921      C1922   1.403       .  A
C1921      S1927   1.708       .  A
C1922      C1923   1.404       .  A
C1922      H1933   1.083       .  S
C1923      C1932   1.374       .  A
C1923      C1924   1.384       .  A
C1924      C1925   1.403       .  A
C1924      S1930   1.703       .  A
C1925      C1926   1.403       .  A
C1925      H1934   1.083       .  S
C1926      C1929   1.373       .  A
S1927      C1928   1.724       .  A
C1928      C1929   1.387       .  A
C1929      H1935   1.083       .  S
S1930      C1931   1.731       .  A
C1931      C1932   1.393       .  A
C1932      H1936   1.081       .  S
C1937      C1942   1.386       .  A
C1937      C1938   1.402       .  A
C1937      S1943   1.709       .  A
C1938      C1939   1.404       .  A
C1938      H1949   1.083       .  S
C1939      C1948   1.370       .  A
C1939      C1940   1.384       .  A
C1940      C1941   1.401       .  A
C1940      S1946   1.705       .  A
C1941      C1942   1.403       .  A
C1941      H1950   1.083       .  S
C1942      C1945   1.370       .  A
S1943      C1944   1.724       .  A
C1944      C1945   1.387       .  A
C1945      H1951   1.083       .  S
S1946      C1947   1.731       .  A
C1947      C1948   1.395       .  A
C1948      H1952   1.081       .  S
C1953      C1958   1.387       .  A
C1953      C1954   1.403       .  A
C1953      S1959   1.708       .  A
C1954      C1955   1.404       .  A
C1954      H1965   1.083       .  S
C1955      C1964   1.372       .  A
C1955      C1956   1.385       .  A
C1956      C1957   1.401       .  A
C1956      S1962   1.703       .  A
C1957      C1958   1.401       .  A
C1957      H1966   1.083       .  S
C1958      C1961   1.370       .  A
S1959      C1960   1.724       .  A
C1960      C1961   1.386       .  A
C1961      H1967   1.083       .  S
S1962      C1963   1.730       .  A
C1963      C1964   1.393       .  A
C1964      H1968   1.082       .  S
C1969      C1974   1.385       .  A
C1969      C1970   1.403       .  A
C1969      S1975   1.704       .  A
C1970      C1971   1.403       .  A
C1970      H1981   1.083       .  S
C1971      C1980   1.373       .  A
C1971      C1972   1.386       .  A
C1972      C1973   1.404       .  A
C1972      S1978   1.710       .  A
C1973      C1974   1.404       .  A
C1973      H1982   1.083       .  S
C1974      C1977   1.374       .  A
S1975      C1976   1.731       .  A
C1976      C1977   1.393       .  A
C1977      H1983   1.082       .  S
S1978      C1979   1.724       .  A
C1979      C1980   1.388       .  A
C1980      H1984   1.083       .  S
C1985      C1990   1.385       .  A
C1985      C1986   1.403       .  A
C1985      S1991   1.705       .  A
C1986      C1987   1.403       .  A
C1986      H1997   1.083       .  S
C1987      C1996   1.374       .  A
C1987      C1988   1.387       .  A
C1988      C1989   1.403       .  A
C1988      S1994   1.706       .  A
C1989      C1990   1.403       .  A
C1989      H1998   1.083       .  S
C1990      C1993   1.373       .  A
S1991      C1992   1.731       .  A
C1992      C1993   1.393       .  A
C1993      H1999   1.082       .  S
S1994      C1995   1.725       .  A
C1995      C1996   1.387       .  A
C1996      H2000   1.083       .  S
C2001      C2006   1.383       .  A
C2001      C2002   1.401       .  A
C2001      S2007   1.704       .  A
C2002      C2003   1.402       .  A
C2002      H2013   1.083       .  S
C2003      C2012   1.369       .  A
C2003      C2004   1.386       .  A
C2004      C2005   1.402       .  A
C2004      S2010   1.710       .  A
C2005      C2006   1.404       .  A
C2005      H2014   1.083       .  S
C2006      C2009   1.371       .  A
S2007      C2008   1.732       .  A
C2008      C2009   1.396       .  A
C2009      H2015   1.080       .  S
S2010      C2011   1.724       .  A
C2011      C2012   1.387       .  A
C2012      H2016   1.083       .  S
C2017      C2022   1.384       .  A
C2017      C2018   1.402       .  A
C2017      S2023   1.704       .  A
C2018      C2019   1.403       .  A
C2018      H2029   1.083       .  S
C2019      C2028   1.370       .  A
C2019      C2020   1.387       .  A
C2020      C2021   1.399       .  A
C2020      S2026   1.703       .  A
C2021      C2022   1.401       .  A
C2021      H2030   1.083       .  S
C2022      C2025   1.367       .  A
S2023      C2024   1.732       .  A
C2024      C2025   1.393       .  A
C2025      H2031   1.081       .  S
S2026      C2027   1.722       .  A
C2027      C2028   1.386       .  A
C2028      H2032   1.083       .  S
C2033      C2038   1.384       .  A
C2033      C2034   1.403       .  A
C2033      S2039   1.706       .  A
C2034      C2035   1.404       .  A
C2034      H2045   1.083       .  S
C2035      C2044   1.372       .  A
C2035      C2036   1.387       .  A
C2036      C2037   1.400       .  A
C2036      S2042   1.704       .  A
C2037      C2038   1.401       .  A
C2037      H2046   1.083       .  S
C2038      C2041   1.368       .  A
S2039      C2040   1.730       .  A
C2040      C2041   1.392       .  A
C2041      H2047   1.081       .  S
S2042      C2043   1.722       .  A
C2043      C2044   1.387       .  A
C2044      H2048   1.083       .  S
C2049      C2054   1.387       .  A
C2049      C2050   1.401       .  A
C2049      S2055   1.706       .  A
C2050      C2051   1.402       .  A
C2050      H2061   1.083       .  S
C2051      C2060   1.370       .  A
C2051      C2052   1.385       .  A
C2052      C2053   1.401       .  A
C2052      S2058   1.703       .  A
C2053      C2054   1.402       .  A
C2053      H2062   1.083       .  S
C2054      C2057   1.370       .  A
S2055      C2056   1.722       .  A
C2056      C2057   1.386       .  A
C2057      H2063   1.083       .  S
S2058      C2059   1.729       .  A
C2059      C2060   1.390       .  A
C2060      H2064   1.082       .  S
C2065      C2070   1.385       .  A
C2065      C2066   1.403       .  A
C2065      S2071   1.702       .  A
C2066      C2067   1.402       .  A
C2066      H2077   1.083       .  S
C2067      C2076   1.374       .  A
C2067      C2068   1.387       .  A
C2068      C2069   1.401       .  A
C2068      S2074   1.702       .  A
C2069      C2070   1.401       .  A
C2069      H2078   1.083       .  S
C2070      C2073   1.373       .  A
S2071      C2072   1.731       .  A
C2072      C2073   1.390       .  A
C2073      H2079   1.082       .  S
S2074      C2075   1.724       .  A
C2075      C2076   1.387       .  A
C2076      H2080   1.083       .  S
C2081      C2086   1.386       .  A
C2081      C2082   1.399       .  A
C2081      S2087   1.701       .  A
C2082      C2083   1.399       .  A
C2082      H2093   1.083       .  S
C2083      C2092   1.368       .  A
C2083      C2084   1.387       .  A
C2084      C2085   1.403       .  A
C2084      S2090   1.708       .  A
C2085      C2086   1.404       .  A
C2085      H2094   1.083       .  S
C2086      C2089   1.373       .  A
S2087      C2088   1.727       .  A
C2088      C2089   1.390       .  A
C2089      H2095   1.083       .  S
S2090      C2091   1.723       .  A
C2091      C2092   1.384       .  A
C2092      H2096   1.083       .  S
C2097      C2102   1.383       .  A
C2097      C2098   1.403       .  A
C2097      S2103   1.704       .  A
C2098      C2099   1.404       .  A
C2098      H2109   1.083       .  S
C2099      C2108   1.372       .  A
C2099      C2100   1.387       .  A
C2100      C2101   1.397       .  A
C2100      S2106   1.701       .  A
C2101      C2102   1.399       .  A
C2101      H2110   1.083       .  S
C2102      C2105   1.366       .  A
S2103      C2104   1.733       .  A
C2104      C2105   1.392       .  A
C2105      H2111   1.080       .  S
S2106      C2107   1.722       .  A
C2107      C2108   1.387       .  A
C2108      H2112   1.083       .  S
C2113      C2118   1.384       .  A
C2113      C2114   1.401       .  A
C2113      S2119   1.705       .  A
C2114      C2115   1.402       .  A
C2114      H2125   1.083       .  S
C2115      C2124   1.369       .  A
C2115      C2116   1.387       .  A
C2116      C2117   1.402       .  A
C2116      S2122   1.709       .  A
C2117      C2118   1.404       .  A
C2117      H2126   1.083       .  S
C2118      C2121   1.370       .  A
S2119      C2120   1.729       .  A
C2120      C2121   1.393       .  A
C2121      H2127   1.081       .  S
S2122      C2123   1.723       .  A
C2123      C2124   1.387       .  A
C2124      H2128   1.083       .  S
C2129      C2134   1.384       .  A
C2129      C2130   1.402       .  A
C2129      S2135   1.705       .  A
C2130      C2131   1.403       .  A
C2130      H2141   1.083       .  S
C2131      C2140   1.370       .  A
C2131      C2132   1.387       .  A
C2132      C2133   1.401       .  A
C2132      S2138   1.708       .  A
C2133      C2134   1.403       .  A
C2133      H2142   1.083       .  S
C2134      C2137   1.369       .  A
S2135      C2136   1.730       .  A
C2136      C2137   1.394       .  A
C2137      H2143   1.081       .  S
S2138      C2139   1.723       .  A
C2139      C2140   1.387       .  A
C2140      H2144   1.083       .  S
C2145      C2150   1.385       .  A
C2145      C2146   1.402       .  A
C2145      S2151   1.705       .  A
C2146      C2147   1.403       .  A
C2146      H2157   1.083       .  S
C2147      C2156   1.371       .  A
C2147      C2148   1.387       .  A
C2148      C2149   1.401       .  A
C2148      S2154   1.707       .  A
C2149      C2150   1.402       .  A
C2149      H2158   1.083       .  S
C2150      C2153   1.370       .  A
S2151      C2152   1.730       .  A
C2152      C2153   1.392       .  A
C2153      H2159   1.082       .  S
S2154      C2155   1.723       .  A
C2155      C2156   1.387       .  A
C2156      H2160   1.083       .  S
