geometry optimzed in LAMMPS
_audit_creation_date              2020-12-01 
_audit_creation_method            'lammps2cif' 
_symmetry_space_group_name_H-M    'P1' 
_symmetry_Int_Tables_number       1 
_symmetry_cell_setting            triclinic 
loop_ 
_symmetry_equiv_pos_as_xyz 
  x,y,z 
_cell_length_a                    29.78357753 
_cell_length_b                    29.36936958374141 
_cell_length_c                    30.20810058275963 
_cell_angle_alpha                 91.24412637418091 
_cell_angle_beta                  90.21146355588373 
_cell_angle_gamma                 89.31767218051041 
loop_ 
_atom_site_label 
_atom_site_type_symbol 
_atom_site_fract_x 
_atom_site_fract_y 
_atom_site_fract_z 
_atom_site_charge 
C1          C  0.14480511  0.83288214  0.45284702     0.79900
N2          N  0.17017538  0.83237086  0.49125566    -0.78500
C3          C  0.14860626  0.82934328  0.53121088     0.82300
N4          N  0.10381613  0.82513703  0.53173204    -0.78400
C5          C  0.07837990  0.82577407  0.49508928     0.82400
N6          N  0.09890258  0.83023755  0.45538474    -0.80100
C7          C  0.81773253  0.20393262  0.46330687     0.79900
N8          N  0.86319347  0.20247185  0.46923803    -0.78500
C9          C  0.88126117  0.20441945  0.51047455     0.82300
N10         N  0.85361763  0.20928612  0.54535105    -0.78400
C11         C  0.80867513  0.21247388  0.54104851     0.82400
N12         N  0.78993262  0.20926937  0.49953754    -0.80100
C13         C  0.77943965  0.84391639  0.44798729     0.79900
N14         N  0.78946355  0.88823141  0.44459080    -0.78500
C15         C  0.79566917  0.91518245  0.48030122     0.82300
N16         N  0.79119791  0.89776082  0.52121287    -0.78400
C17         C  0.78079336  0.85318305  0.52631236     0.82400
N18         N  0.77489018  0.82550367  0.48924728    -0.80100
C19         C  0.43284293  0.82595725  0.16249315     0.79900
N20         N  0.43242606  0.82187198  0.11769801    -0.78500
C21         C  0.47044377  0.81479288  0.09430217     0.82300
N22         N  0.50982879  0.81226219  0.11633312    -0.78400
C23         C  0.51207952  0.81678727  0.16091704     0.82400
N24         N  0.47312293  0.82311501  0.18481150    -0.80100
C25         C  0.82969601  0.47273530  0.18050029     0.79900
N26         N  0.87524840  0.47779178  0.17880709    -0.78500
C27         C  0.89330069  0.51998040  0.17735361     0.82300
N28         N  0.86580053  0.55663287  0.17653484    -0.78400
C29         C  0.82070445  0.55303372  0.17724119     0.82400
N30         N  0.80208217  0.51069896  0.17995943    -0.80100
C31         C  0.79808616  0.49632218  0.82880899     0.79900
N32         N  0.79672223  0.53176135  0.79946651    -0.78500
C33         C  0.79417976  0.57550461  0.81579259     0.82300
N34         N  0.79316783  0.58259425  0.85968580    -0.78400
C35         C  0.79392260  0.54892408  0.88877089     0.82400
N36         N  0.79650164  0.50521365  0.87348680    -0.80100
C37         C  0.43934764  0.23043561  0.83046359     0.79900
N38         N  0.47948314  0.22681871  0.80821641    -0.78500
C39         C  0.51900610  0.22892042  0.83202437     0.82300
N40         N  0.51742873  0.23513723  0.87699858    -0.78400
C41         C  0.47750810  0.23957709  0.89808201     0.82400
N42         N  0.43945838  0.23683900  0.87454785    -0.80100
C43         C  0.13633826  0.49426045  0.80340304     0.79900
N44         N  0.16232262  0.53214904  0.81083163    -0.78500
C45         C  0.14313160  0.57439799  0.80694918     0.82300
N46         N  0.09951758  0.57779385  0.79562302    -0.78400
C47         C  0.07331169  0.54163704  0.78794359     0.82400
N48         N  0.09188194  0.49938692  0.79214465    -0.80100
C49         C  0.43660942  0.86241829  0.80653080     0.79900
N50         N  0.43287477  0.90797199  0.80465566    -0.78500
C51         C  0.46844508  0.93565665  0.80541363     0.82300
N52         N  0.51029835  0.91660858  0.80863881    -0.78400
C53         C  0.51579878  0.87019449  0.81105909     0.82400
N54         N  0.47852723  0.84277832  0.80912415    -0.80100
C55         C  0.94992372  0.34421679  0.31140047     0.79900
N56         N  0.99159675  0.32511332  0.31656282    -0.78500
C57         C  0.02849846  0.35276546  0.31598767     0.82300
N58         N  0.02320159  0.39868020  0.31083092    -0.78400
C59         C  0.98175197  0.41707243  0.30523261     0.82400
N60         N  0.94608907  0.38951577  0.30546598    -0.80100
O61         O  0.30470209  0.23214851  0.28435630    -0.88700
C62         C  0.25934704  0.22290911  0.16059853     0.87300
Mg63       Mg  0.26564958  0.21729950  0.34039236     1.58100
O64         O  0.27236515  0.33363490  0.20299020    -0.88400
O65         O  0.34678165  0.28725890  0.26040177    -0.75800
C66         C  0.07457647  0.33403408  0.31430343     0.92400
O67         O  0.22982610  0.16731578  0.24373533    -0.75600
O68         O  0.08524419  0.29696184  0.33341236    -0.83100
Mg69       Mg  0.30500458  0.18182095  0.23205381     1.58000
C70         C  0.17552637  0.43234941  0.19308435     0.92300
O71         O  0.37930781  0.19676391  0.22063878    -0.81400
H72         H  0.31269424  0.37967629  0.23144643    -0.06700
C73         C  0.14225447  0.28728275  0.21661235     0.87200
O74         O  0.25353361  0.29275012  0.35610716    -0.75900
O75         O  0.28927119  0.23420076  0.18698503    -0.88600
O76         O  0.19447502  0.40045364  0.17037446    -0.81400
C77         C  0.28781123  0.32569007  0.08475205     0.92400
C78         C  0.41009412  0.21977552  0.20221578     0.92300
Mg79       Mg  0.17716103  0.36432068  0.27548771     1.58000
O80         O  0.10297841  0.35679846  0.29260840    -0.81400
O81         O  0.25133246  0.37703120  0.25996897    -0.75600
O82         O  0.31954645  0.30693772  0.10754090    -0.81400
O83         O  0.31968270  0.11844548  0.27652253    -0.83200
O84         O  0.15944935  0.23825685  0.39602602    -0.81500
C85         C  0.27986518  0.36435050  0.23078732     0.86700
O86         O  0.19301094  0.31062338  0.31891287    -0.88600
O87         O  0.17409978  0.31325361  0.22266889    -0.88700
O88         O  0.12935113  0.26085034  0.24652299    -0.75800
Mg89       Mg  0.33143251  0.29418613  0.18600170     1.58000
O90         O  0.24976584  0.33559004  0.10157057    -0.83200
H91         H  0.34897076  0.26450831  0.32334107    -0.06900
O92         O  0.20633242  0.21105589  0.29966031    -0.88400
H93         H  0.16677635  0.16565674  0.26893509    -0.06700
H94         H  0.22246665  0.35441774  0.36102942    -0.06900
C95         C  0.19970845  0.18063709  0.27122869     0.86700
C96         C  0.33425625  0.26087295  0.29070385     0.87300
C97         C  0.22223585  0.32046243  0.34648147     0.87300
H98         H  0.12597870  0.28596691  0.18456554    -0.06900
O99         O  0.22646930  0.24909450  0.15175916    -0.75900
Mg100      Mg  0.14856030  0.25251851  0.31942288     1.58000
H101        H  0.25971526  0.18861345  0.14683538    -0.06900
C102        C  0.30066778  0.10980131  0.31319295     0.92300
O103        O  0.22623019  0.20314686  0.39900876    -0.83100
C104        C  0.18918922  0.21472626  0.41641723     0.92400
O105        O  0.40031638  0.25407720  0.17824380    -0.83100
Mg106      Mg  0.21198768  0.32466830  0.16453070     1.58200
O107        O  0.27996447  0.14090795  0.33500372    -0.81400
O108        O  0.16117098  0.42597835  0.23201015    -0.83100
C109        C  0.30090783  0.06346337  0.33249574     0.79900
N110        N  0.29740848  0.02453425  0.30642457    -0.78500
C111        C  0.28942995  0.98384412  0.32619498     0.82300
N112        N  0.28493267  0.98296397  0.37041465    -0.78400
C113        C  0.28967276  0.01998063  0.39668394     0.82400
N114        N  0.29803419  0.06056722  0.37772727    -0.80100
O115        O  0.15338942  0.72430088  0.20726899    -0.88700
C116        C  0.20449488  0.72872125  0.33292628     0.87300
Mg117      Mg  0.19570282  0.70999108  0.15151758     1.58100
O118        O  0.19095427  0.83772854  0.28794304    -0.88400
O119        O  0.11677305  0.78575518  0.22968970    -0.75800
C120        C  0.38849312  0.81984484  0.18312199     0.92400
O121        O  0.23054060  0.66198470  0.25030107    -0.75600
O122        O  0.36925810  0.78365492  0.17040897    -0.83100
Mg123      Mg  0.15652714  0.67908060  0.26342685     1.58000
C124        C  0.28436016  0.93893939  0.30355187     0.92300
O125        O  0.07903967  0.68892160  0.28210730    -0.81400
H126        H  0.15176796  0.88568706  0.26121752    -0.06700
C127        C  0.31593899  0.78651281  0.28595871     0.87200
O128        O  0.20885986  0.78653298  0.14169941    -0.75900
O129        O  0.17593649  0.73703091  0.30419350    -0.88600
O130        O  0.26242909  0.90965318  0.32542494    -0.81400
C131        C  0.16503104  0.83068942  0.40758373     0.92400
C132        C  0.05795220  0.71809093  0.30685014     0.92300
Mg133      Mg  0.28934361  0.86382846  0.22348285     1.58000
O134        O  0.36814286  0.85064990  0.20675113    -0.81400
O135        O  0.21473627  0.88228523  0.23570939    -0.75600
O136        O  0.14181589  0.81111975  0.37745322    -0.81400
O137        O  0.14403514  0.61394180  0.22067754    -0.83200
O138        O  0.29980132  0.73343715  0.10893114    -0.81500
C139        C  0.18446705  0.86933950  0.26212120     0.86700
O140        O  0.26793802  0.80705679  0.18167093    -0.88600
O141        O  0.28905215  0.81798832  0.27905109    -0.88700
O142        O  0.32428156  0.75562911  0.25699667    -0.75800
Mg143      Mg  0.13417186  0.79711554  0.30296897     1.58000
O144        O  0.20302529  0.84804408  0.39859807    -0.83200
H145        H  0.10949678  0.75677532  0.16860259    -0.06900
O146        O  0.25094728  0.70670438  0.19717495    -0.88400
H147        H  0.29197966  0.65907388  0.22162461    -0.06700
H148        H  0.23556173  0.84978078  0.14156771    -0.06900
C149        C  0.25905285  0.67497212  0.22230183     0.86700
C150        C  0.12540889  0.75490939  0.20075290     0.87300
C151        C  0.23795390  0.81570266  0.15427703     0.87300
H152        H  0.33108852  0.78397466  0.31840400    -0.06900
O153        O  0.23308798  0.75801955  0.34593932    -0.75900
Mg154      Mg  0.30782815  0.74575166  0.18344473     1.58000
H155        H  0.20606691  0.69495235  0.34643986    -0.06900
C156        C  0.16313127  0.60334740  0.18392054     0.92300
O157        O  0.23824642  0.69756750  0.08672311    -0.83100
C158        C  0.27641673  0.71475717  0.07837345     0.92400
O159        O  0.07484543  0.75583978  0.31870371    -0.83100
Mg160      Mg  0.24622974  0.83388737  0.33417421     1.58200
O161        O  0.18216145  0.63310687  0.16007398    -0.81400
O162        O  0.30420545  0.92833809  0.26719760    -0.83100
O163        O  0.77979395  0.19327258  0.29922513    -0.88700
C164        C  0.65730279  0.25261544  0.29248601     0.87300
Mg165      Mg  0.83527582  0.23748322  0.31309786     1.60900
O166        O  0.70422988  0.23104737  0.18795156    -0.88400
O167        O  0.75888507  0.15473903  0.23986533    -0.75800
C168        C  0.81253825  0.42710455  0.19164652     0.92400
O169        O  0.73643511  0.27421607  0.35883884    -0.75600
O170        O  0.82343266  0.41203075  0.22950399    -0.83100
Mg171      Mg  0.72172523  0.19869511  0.34268088     1.58000
C172        C  0.69400952  0.31464489  0.08221874     0.92300
O173        O  0.69856731  0.11968717  0.33332456    -0.81400
H174        H  0.72944549  0.18616774  0.14365886    -0.06700
C175        C  0.70569956  0.36163763  0.22599808     0.87200
O176        O  0.84864803  0.24723086  0.23857033    -0.75900
O177        O  0.68335269  0.21981566  0.28584438    -0.88600
O178        O  0.67042242  0.29744139  0.11300273    -0.81400
C179        C  0.58169268  0.21264078  0.19818847     0.92400
C180        C  0.67392558  0.09937042  0.30397190     0.92300
Mg181      Mg  0.77185734  0.32434451  0.15564904     1.58000
O182        O  0.79022471  0.40306209  0.16338126    -0.81400
O183        O  0.75810036  0.24845534  0.14232156    -0.75600
O184        O  0.61229174  0.18900855  0.21617986    -0.81400
O185        O  0.76406741  0.18518739  0.40592801    -0.83200
O186        O  0.87648802  0.34079224  0.28789166    -0.81500
C187        C  0.72998821  0.22050882  0.15727066     0.86700
O188        O  0.81014126  0.30639354  0.21380136    -0.88600
O189        O  0.71432148  0.33069406  0.19895990    -0.88700
O190        O  0.73209987  0.37117590  0.25769639    -0.75800
Mg191      Mg  0.68566376  0.17595543  0.22800524     1.58000
O192        O  0.59142033  0.24868774  0.17778943    -0.83200
H193        H  0.81939715  0.14635859  0.26980518    -0.06900
O194        O  0.78790959  0.29451395  0.31205385    -0.88400
H195        H  0.76377468  0.33725306  0.35884484    -0.06700
H196        H  0.85282867  0.27005555  0.17583769    -0.06900
C197        C  0.76315856  0.30349705  0.34385568     0.86700
C198        C  0.78713612  0.16363006  0.27034699     0.87300
C199        C  0.83800256  0.27498805  0.20822863     0.87300
H200        H  0.67350403  0.37891880  0.22428330    -0.06900
O201        O  0.64676752  0.28086641  0.26253618    -0.75900
Mg202      Mg  0.80472815  0.35118068  0.27102972     1.58000
H203        H  0.64404276  0.25827642  0.32544150    -0.06900
C204        C  0.80076329  0.20490725  0.41700941     0.92300
O205        O  0.89972826  0.28134209  0.32601847    -0.83100
C206        C  0.90732930  0.31922557  0.30776475     0.92400
O207        O  0.66532452  0.11700516  0.26704170    -0.83100
Mg208      Mg  0.65861923  0.28865320  0.18756290     1.58200
O209        O  0.82510983  0.22526544  0.38873248    -0.81400
O210        O  0.73074482  0.33530831  0.09067238    -0.83100
C211        C  0.64978610  0.05623990  0.31143638     0.79900
N212        N  0.67099563  0.01446815  0.30743070    -0.78500
C213        C  0.64578688  0.97605026  0.30085489     0.82300
N214        N  0.60105494  0.98004423  0.29688567    -0.78400
C215        C  0.57961464  0.02040433  0.30051414     0.82400
N216        N  0.60392023  0.05859854  0.30839451    -0.80100
O217        O  0.76443252  0.71688185  0.17510847    -0.88700
C218        C  0.63493479  0.71576809  0.21782157     0.87300
Mg219      Mg  0.82072458  0.70484803  0.21754733     1.58100
O220        O  0.67768492  0.82502971  0.20425324    -0.88400
O221        O  0.74029007  0.77305735  0.13410602    -0.75800
C222        C  0.77284874  0.82039977  0.40481260     0.92400
O223        O  0.72142576  0.65249234  0.24842173    -0.75600
O224        O  0.79154363  0.78222431  0.39511940    -0.83100
Mg225      Mg  0.71031986  0.66804562  0.17517839     1.58000
C226        C  0.66395660  0.92926895  0.29597916     0.92300
O227        O  0.69564597  0.67847633  0.10025978    -0.81400
H228        H  0.70633966  0.87054133  0.16537350    -0.06700
C229        C  0.67855117  0.77826727  0.32832825     0.87200
O230        O  0.83037227  0.78078937  0.23107516    -0.75900
O231        O  0.66506276  0.72398873  0.19105411    -0.88600
O232        O  0.63980539  0.90008008  0.27477769    -0.81400
C233        C  0.55786802  0.81419571  0.18026534     0.92400
C234        C  0.67401569  0.70269830  0.07220010     0.92300
Mg235      Mg  0.74239096  0.85397654  0.30115468     1.58000
O236        O  0.75370054  0.84441913  0.37533375    -0.81400
O237        O  0.73254933  0.86888641  0.22740462    -0.75600
O238        O  0.58793182  0.79365676  0.15675707    -0.81400
O239        O  0.75775424  0.60430458  0.16265857    -0.83200
O240        O  0.85860988  0.72988069  0.32226587    -0.81500
C241        C  0.70489765  0.85570729  0.19777486     0.86700
O242        O  0.78519356  0.79830552  0.28623608    -0.88600
O243        O  0.68670730  0.80764756  0.30078030    -0.88700
O244        O  0.70785478  0.74924759  0.34037687    -0.75800
Mg245      Mg  0.66472641  0.78212321  0.14787842     1.58000
O246        O  0.56755647  0.83418113  0.21690396    -0.83200
H247        H  0.80398833  0.74781453  0.13200606    -0.06900
O248        O  0.77361737  0.69925752  0.27171560    -0.88400
H249        H  0.74878026  0.65101784  0.30996620    -0.06700
H250        H  0.82816334  0.84287097  0.26159758    -0.06900
C251        C  0.74870132  0.66664745  0.27788641     0.86700
C252        C  0.77086025  0.74533634  0.14621454     0.87300
C253        C  0.81552620  0.80850419  0.26048779     0.87300
H254        H  0.64478543  0.77591748  0.34102572    -0.06900
O255        O  0.62011375  0.74570984  0.24539487    -0.75900
Mg256      Mg  0.78334797  0.74058855  0.32933876     1.58000
H257        H  0.62160815  0.68171396  0.21857668    -0.06900
C258        C  0.79578318  0.59696261  0.18129191     0.92300
O259        O  0.88430738  0.69523724  0.26084307    -0.83100
C260        C  0.89072480  0.71267638  0.29931951     0.92400
O261        O  0.65408807  0.73972061  0.08361837    -0.83100
Mg262      Mg  0.63147551  0.82243425  0.25898245     1.58200
O263        O  0.81684296  0.62867789  0.20176661    -0.81400
O264        O  0.70069243  0.91811270  0.31449574    -0.83100
C265        C  0.93468664  0.71153652  0.32172652     0.79900
N266        N  0.93317940  0.71689919  0.36605677    -0.78500
C267        C  0.97034482  0.71759604  0.39128481     0.82300
N268        N  0.01092142  0.71331138  0.37142766    -0.78400
C269        C  0.01384010  0.70904950  0.32633277     0.82400
N270        N  0.97541286  0.70817361  0.30107027    -0.80100
C271        C  0.28592749  0.36112475  0.96548673     0.79900
N272        N  0.29321912  0.40656541  0.97280722    -0.78500
C273        C  0.30121198  0.42289996  0.01454180     0.82300
N274        N  0.30356311  0.39372447  0.04822511    -0.78400
C275        C  0.29692218  0.34883195  0.04264515     0.82400
N276        N  0.28692171  0.33206352  0.00092528    -0.80100
O277        O  0.18092204  0.34373393  0.71287803    -0.88700
C278        C  0.18004684  0.29879193  0.84075641     0.87300
Mg279      Mg  0.17170148  0.30123321  0.65458486     1.58100
O280        O  0.28723074  0.32094471  0.79951164    -0.88400
O281        O  0.23227479  0.38970507  0.74009365    -0.75800
C282        C  0.29649620  0.11341263  0.69381746     0.92400
O283        O  0.12328411  0.26311151  0.75288906    -0.75600
O284        O  0.25891222  0.12394389  0.67621395    -0.83100
Mg285      Mg  0.13278745  0.33940859  0.76604241     1.58000
C286        C  0.39428593  0.23156447  0.81012927     0.92300
O287        O  0.13542739  0.41683438  0.78083055    -0.81400
H288        H  0.32979929  0.36327972  0.77083126    -0.06700
C289        C  0.24797675  0.18838808  0.79118952     0.87200
O290        O  0.24771640  0.29203671  0.64643740    -0.75900
O291        O  0.18716515  0.32742151  0.81219027    -0.88600
O292        O  0.36313978  0.25111135  0.83312303    -0.81400
C293        C  0.27799905  0.34448409  0.91880027     0.92400
C294        C  0.15602865  0.44749817  0.80333660     0.92300
Mg295      Mg  0.32325356  0.22172736  0.73094517     1.58000
O296        O  0.31986549  0.14307722  0.71514591    -0.81400
O297        O  0.33188258  0.29896566  0.74483603    -0.75600
O298        O  0.25528901  0.36960824  0.89213519    -0.81400
O299        O  0.07256568  0.34917961  0.71915567    -0.83200
O300        O  0.20472195  0.19639666  0.61251281    -0.81500
C301        C  0.31696836  0.32906320  0.77225486     0.86700
O302        O  0.26849368  0.23506710  0.68809865    -0.88600
O303        O  0.27552321  0.21885581  0.78507958    -0.88700
O304        O  0.22121079  0.17473494  0.76096926    -0.75800
Mg305      Mg  0.24104156  0.37638656  0.81452113     1.58000
O306        O  0.29587611  0.30678890  0.90570476    -0.83200
H307        H  0.21060475  0.39060061  0.67636824    -0.06900
O308        O  0.16875352  0.24365202  0.69846020    -0.88400
H309        H  0.12499288  0.20030888  0.72371225    -0.06700
H310        H  0.31110095  0.26624800  0.64814701    -0.06900
C311        C  0.13806947  0.23450224  0.72419025     0.86700
C312        C  0.20745669  0.37543452  0.70848464     0.87300
C313        C  0.27703501  0.26378953  0.66002796     0.87300
H314        H  0.24535717  0.17424505  0.82381330    -0.06900
O315        O  0.21053351  0.27143367  0.85383497    -0.75900
Mg316      Mg  0.21382201  0.18783121  0.68676513     1.58000
H317        H  0.14652389  0.29597218  0.85395037    -0.06900
C318        C  0.06405356  0.33360649  0.68029747     0.92300
O319        O  0.16651659  0.25743088  0.58973035    -0.83100
C320        C  0.18662920  0.21951868  0.58174861     0.92400
O321        O  0.19227977  0.43862899  0.82464565    -0.83100
Mg322      Mg  0.28652433  0.26271899  0.84168115     1.58200
O323        O  0.09421613  0.31397142  0.65627731    -0.81400
O324        O  0.38621722  0.21163900  0.77325611    -0.83100
C325        C  0.31506632  0.06622944  0.68855181     0.79900
N326        N  0.28806971  0.02820271  0.68599415    -0.78500
C327        C  0.30765806  0.98567785  0.68228465     0.82300
N328        N  0.35253753  0.98229070  0.68172173    -0.78400
C329        C  0.37926160  0.01873334  0.68416661     0.82400
N330        N  0.36069876  0.06101955  0.68719707    -0.80100
O331        O  0.27388032  0.84135868  0.77474450    -0.88700
C332        C  0.26873895  0.78650702  0.64992491     0.87300
Mg333      Mg  0.29380016  0.80344261  0.83279036     1.58100
O334        O  0.16273783  0.81199988  0.69283404    -0.88400
O335        O  0.21785472  0.88331295  0.74896930    -0.75800
C336        C  0.16698813  0.61828325  0.80814443     0.92400
O337        O  0.32997411  0.75843170  0.73281216    -0.75600
O338        O  0.20401951  0.62537994  0.82833029    -0.83100
Mg339      Mg  0.31613807  0.83400363  0.71814517     1.58000
C340        C  0.06178096  0.71453825  0.68996458     0.92300
O341        O  0.30675584  0.90984115  0.70350761    -0.81400
H342        H  0.12055935  0.85754121  0.72065248    -0.06700
C343        C  0.20900925  0.68099703  0.70975740     0.87200
O344        O  0.21937280  0.79684867  0.85084135    -0.75900
O345        O  0.26094112  0.81794782  0.67673820    -0.88600
O346        O  0.08621027  0.73491635  0.66187868    -0.81400
C347        C  0.16927666  0.82125025  0.57493308     0.92400
C348        C  0.28482258  0.94091738  0.68352467     0.92300
Mg349      Mg  0.13819239  0.72338029  0.77010960     1.58000
O350        O  0.14658384  0.65020430  0.78831261    -0.81400
O351        O  0.12452432  0.79791192  0.75308302    -0.75600
O352        O  0.19266904  0.85139152  0.59602238    -0.81400
O353        O  0.37704038  0.85023538  0.75843347    -0.83200
O354        O  0.26229148  0.70303994  0.89004694    -0.81500
C355        C  0.13490892  0.82357508  0.72143510     0.86700
O356        O  0.19471561  0.73917094  0.81113538    -0.88600
O357        O  0.18187148  0.71301114  0.71484981    -0.88700
O358        O  0.23636823  0.66916932  0.74002976    -0.75800
Mg359      Mg  0.20605906  0.86637832  0.67424994     1.58000
O360        O  0.15442252  0.78600655  0.59360726    -0.83200
H361        H  0.24150010  0.88819698  0.81204394    -0.06900
O362        O  0.29320200  0.74171753  0.79344316    -0.88400
H363        H  0.33389003  0.69703404  0.76220917    -0.06700
H364        H  0.15590085  0.77295171  0.85494281    -0.06900
C365        C  0.31990714  0.73117718  0.76340185     0.86700
C366        C  0.24478554  0.87166299  0.77987322     0.87300
C367        C  0.18860612  0.76925209  0.83978965     0.87300
H368        H  0.21048135  0.66341077  0.67797397    -0.06900
O369        O  0.23977540  0.75644098  0.64063443    -0.75900
Mg370      Mg  0.24855729  0.68846991  0.81340956     1.58000
H371        H  0.30187600  0.78331003  0.63561132    -0.06900
C372        C  0.39457876  0.83859368  0.79489434     0.92300
O373        O  0.30798824  0.76312865  0.89475217    -0.83100
C374        C  0.28878977  0.72919577  0.91213022     0.92400
O375        O  0.24881085  0.93165072  0.66220837    -0.83100
Mg376      Mg  0.16519748  0.74862192  0.65588605     1.58200
O377        O  0.37277382  0.81553694  0.82303886    -0.81400
O378        O  0.07668969  0.70535534  0.72833408    -0.83100
C379        C  0.93734950  0.70007098  0.67244554     0.79900
N380        N  0.97818842  0.72138373  0.67603344    -0.78500
C381        C  0.01714454  0.69528004  0.67741544     0.82300
N382        N  0.01431961  0.64877216  0.67611957    -0.78400
C383        C  0.97369145  0.62840467  0.67423753     0.82400
N384        N  0.93636159  0.65434907  0.67236315    -0.80100
C385        C  0.93942228  0.34724772  0.67036897     0.79900
N386        N  0.98097668  0.34015836  0.68854730    -0.78500
C387        C  0.01826240  0.33941370  0.66171426     0.82300
N388        N  0.01308829  0.34160506  0.61680733    -0.78400
C389        C  0.97150768  0.34811904  0.59939983     0.82400
N390        N  0.93596743  0.35257331  0.62656819    -0.80100
O391        O  0.70306919  0.34879699  0.79632406    -0.88700
C392        C  0.82593479  0.29625295  0.79060313     0.87300
Mg393      Mg  0.64595455  0.30918315  0.80991501     1.58100
O394        O  0.77669674  0.31903468  0.68731671    -0.88400
O395        O  0.72421501  0.39394032  0.74377326    -0.75800
C396        C  0.66109797  0.12035249  0.68008591     0.92400
O397        O  0.74416887  0.26500838  0.84653525    -0.75600
O398        O  0.64167216  0.13097684  0.71675985    -0.83100
Mg399      Mg  0.75950482  0.34205006  0.84108570     1.58000
C400        C  0.78445353  0.22304795  0.58301903     0.92300
O401        O  0.77554686  0.41975293  0.83722530    -0.81400
H402        H  0.74834089  0.36327686  0.64598137    -0.06700
C403        C  0.76264810  0.18457770  0.72284376     0.87200
O404        O  0.62633231  0.30355634  0.73627342    -0.75900
O405        O  0.79951613  0.32834722  0.78474874    -0.88600
O406        O  0.80788672  0.24263762  0.61327386    -0.81400
C407        C  0.89679871  0.33456919  0.69109433     0.92400
C408        C  0.79591850  0.44832645  0.81303787     0.92300
Mg409      Mg  0.70171081  0.22550245  0.65354258     1.58000
O410        O  0.68320328  0.14946805  0.65835766    -0.81400
O411        O  0.71889920  0.30128191  0.64465316    -0.75600
O412        O  0.87469202  0.36347551  0.71490900    -0.81400
O413        O  0.72074367  0.35156073  0.90742836    -0.83200
O414        O  0.58165813  0.20721746  0.78344686    -0.81500
C415        C  0.74856472  0.32911734  0.65863761     0.86700
O416        O  0.65921616  0.24147573  0.70947164    -0.88600
O417        O  0.75700050  0.21844244  0.69983980    -0.88700
O418        O  0.73235256  0.17112024  0.74878253    -0.75800
Mg419      Mg  0.79776435  0.37485327  0.73071939     1.58000
O420        O  0.87949796  0.29751210  0.67671841    -0.83200
H421        H  0.66300891  0.39784262  0.77289094    -0.06900
O422        O  0.68450089  0.24735326  0.80606431    -0.88400
H423        H  0.71708381  0.20189964  0.84307936    -0.06700
H424        H  0.61739839  0.27953638  0.67340172    -0.06900
C425        C  0.71482937  0.23675332  0.83240842     0.86700
C426        C  0.69555883  0.38117221  0.77176007     0.87300
C427        C  0.63328223  0.27440746  0.70517467     0.87300
H428        H  0.79454351  0.16663777  0.72165835    -0.06900
O429        O  0.83274696  0.26545632  0.76125950    -0.75900
Mg430      Mg  0.65931670  0.19291836  0.76307221     1.58000
H431        H  0.84160811  0.29283056  0.82271722    -0.06900
C432        C  0.68450249  0.33059675  0.91500689     0.92300
O433        O  0.58423037  0.27059062  0.82540541    -0.83100
C434        C  0.56354312  0.23569441  0.81122041     0.92400
O435        O  0.81304903  0.43687879  0.77564696    -0.83100
Mg436      Mg  0.81609105  0.25718907  0.68793444     1.58200
O437        O  0.66027567  0.31530817  0.88338654    -0.81400
O438        O  0.74482022  0.20934435  0.59057635    -0.83100
C439        C  0.65974766  0.07334229  0.66101547     0.79900
N440        N  0.66278341  0.06820522  0.61595558    -0.78500
C441        C  0.66872892  0.02623871  0.59705937     0.82300
N442        N  0.67126686  0.99001618  0.62327250    -0.78400
C443        C  0.66737945  0.99338955  0.66758015     0.82400
N444        N  0.66155231  0.03552058  0.68723089    -0.80100
O445        O  0.76122334  0.84458532  0.69312162    -0.88700
C446        C  0.62892806  0.80477961  0.70971337     0.87300
Mg447      Mg  0.81689135  0.80233623  0.67083100     1.58100
O448        O  0.68122740  0.82054198  0.81268461    -0.88400
O449        O  0.74319811  0.88442691  0.75384630    -0.75800
C450        C  0.78704612  0.61767216  0.79070920     0.92400
O451        O  0.70861234  0.76580168  0.63893328    -0.75600
O452        O  0.80376680  0.62511178  0.75299169    -0.83100
Mg453      Mg  0.69951806  0.84141059  0.65601894     1.58000
C454        C  0.67700910  0.71273145  0.90567122     0.92300
O455        O  0.68722025  0.91674950  0.66673951    -0.81400
H456        H  0.71280080  0.85985726  0.85743634    -0.06700
C457        C  0.68266029  0.69241571  0.75765162     0.87200
O458        O  0.83630593  0.79174969  0.74393685    -0.75900
O459        O  0.66228150  0.82883282  0.71541058    -0.88600
O460        O  0.64752291  0.73963695  0.88812032    -0.81400
C461        C  0.56251372  0.85061455  0.80922797     0.92400
C462        C  0.67104954  0.94938191  0.69036036     0.92300
Mg463      Mg  0.75212474  0.72323964  0.82547023     1.58000
O464        O  0.76767147  0.64940720  0.81285626    -0.81400
O465        O  0.74161735  0.79761450  0.84733838    -0.75600
O466        O  0.59175021  0.87323821  0.78802442    -0.81400
O467        O  0.73618430  0.85393073  0.59078559    -0.83200
O468        O  0.86266294  0.69978849  0.69656548    -0.81500
C469        C  0.71122370  0.82719910  0.84031832     0.86700
O470        O  0.79040445  0.74002204  0.76789240    -0.88600
O471        O  0.69083748  0.72098806  0.78745888    -0.88700
O472        O  0.71184455  0.67940175  0.72896929    -0.75800
Mg473      Mg  0.66797390  0.87721026  0.77047956     1.58000
O474        O  0.57262688  0.81253362  0.82751555    -0.83200
H475        H  0.80483572  0.88440878  0.72558109    -0.06900
O476        O  0.77124607  0.74541689  0.67168151    -0.88400
H477        H  0.73779709  0.70351083  0.63071369    -0.06700
H478        H  0.83883394  0.76673089  0.80607531    -0.06900
C479        C  0.73991841  0.73711611  0.64586015     0.86700
C480        C  0.77086743  0.87192055  0.72362036     0.87300
C481        C  0.82255434  0.76572824  0.77402673     0.87300
H482        H  0.64920587  0.67865379  0.75534128    -0.06900
O483        O  0.61528388  0.77838224  0.73941810    -0.75900
Mg484      Mg  0.78737244  0.69056661  0.71322781     1.58000
H485        H  0.61154584  0.80542883  0.67824377    -0.06900
C486        C  0.77193314  0.83853681  0.57236386     0.92300
O487        O  0.88166569  0.75877891  0.65547819    -0.83100
C488        C  0.89218235  0.72225038  0.67561861     0.92400
O489        O  0.65615636  0.94280709  0.72916550    -0.83100
Mg490      Mg  0.63492701  0.76390508  0.81144357     1.58200
O491        O  0.80171201  0.81603533  0.59409202    -0.81400
O492        O  0.71369525  0.70291722  0.88609629    -0.83100
C493        C  0.30464155  0.71648441  0.95660553     0.79900
N494        N  0.27871430  0.71774584  0.99434834    -0.78500
C495        C  0.29888586  0.70974419  0.03460999     0.82300
N496        N  0.34370349  0.70119424  0.03617726    -0.78400
C497        C  0.36868648  0.69973041  0.99904597     0.82400
N498        N  0.34911914  0.70752707  0.95967231    -0.80100
C499        C  0.66773918  0.32165736  0.96001658     0.79900
N500        N  0.62500177  0.30615998  0.96163466    -0.78500
C501        C  0.60703083  0.29203551  0.99965142     0.82300
N502        N  0.63223895  0.29374081  0.03651595    -0.78400
C503        C  0.67416172  0.31056881  0.03718734     0.82400
N504        N  0.69286767  0.32493488  0.99838281    -0.80100
C505        C  0.66948152  0.68757177  0.94778994     0.79900
N506        N  0.66759698  0.70922741  0.98870041    -0.78500
C507        C  0.67098754  0.68386124  0.02637570     0.82300
N508        N  0.67753300  0.63853036  0.02261292    -0.78400
C509        C  0.68064491  0.61659089  0.98326305     0.82400
N510        N  0.67588095  0.64120221  0.94576081    -0.80100
C511        C  0.45618516  0.20037884  0.20803118     0.79900
N512        N  0.45628980  0.15759085  0.22326190    -0.78500
C513        C  0.49346562  0.13165940  0.22565447     0.82300
N514        N  0.53303512  0.15042983  0.21500948    -0.78400
C515        C  0.53544452  0.19470888  0.20254839     0.82400
N516        N  0.49641881  0.22007781  0.19768611    -0.80100
C517        C  0.16879783  0.47583505  0.17036736     0.79900
N518        N  0.16998700  0.47288771  0.12569995    -0.78500
C519        C  0.16873467  0.51040485  0.10111978     0.82300
N520        N  0.16556673  0.55175726  0.12113179    -0.78400
C521        C  0.16306559  0.55616561  0.16573878     0.82400
N522        N  0.16495809  0.51784350  0.19113140    -0.80100
C523        C  0.18151728  0.19425033  0.45938805     0.79900
N524        N  0.18929966  0.14849521  0.46017680    -0.78500
C525        C  0.19728294  0.12751398  0.49868203     0.82300
N526        N  0.19633889  0.15230857  0.53663805    -0.78400
C527        C  0.18728033  0.19747471  0.53735757     0.82400
N528        N  0.18054414  0.21934436  0.49826763    -0.80100
N529        N  0.05214182  0.98406505  0.59934574    -0.37000
N530        N  0.96136109  0.99918247  0.56595825    -0.57500
N531        N  0.98066147  0.08385261  0.52820425    -0.37000
N532        N  0.07314327  0.07142038  0.55172020    -0.57500
C533        C  0.03701757  0.94086310  0.59698121     0.26600
C534        C  0.09706699  0.98172429  0.59312274     0.26600
C535        C  0.94486355  0.07038877  0.50462248     0.26600
C536        C  0.00583134  0.10925848  0.50171235     0.26600
C537        C  0.95756912  0.96177998  0.59056342     0.35200
C538        C  0.91955826  0.01480904  0.55786436     0.35200
C539        C  0.10443814  0.06271739  0.58252662     0.35200
C540        C  0.06955782  0.11698837  0.54883234     0.35200
C541        C  0.07343298  0.91101785  0.59404989    -0.22300
C542        C  0.11132598  0.93692118  0.59077727    -0.22300
C543        C  0.94672384  0.08795824  0.46234911    -0.22300
C544        C  0.98580465  0.11249465  0.46045285    -0.22300
C545        C  0.91297131  0.95296450  0.59835434    -0.23300
C546        C  0.88873906  0.98699768  0.57843962    -0.23300
C547        C  0.12285974  0.10317246  0.59802451    -0.23300
C548        C  0.09929460  0.13798865  0.57767240    -0.23300
C549        C  0.99142654  0.92852722  0.59096953    -0.18700
C550        C  0.12421100  0.01926699  0.58476366    -0.18700
C551        C  0.03906045  0.13758140  0.51955196    -0.18700
C552        C  0.91060458  0.04388891  0.52197453    -0.18700
H553        H  0.07285677  0.87439605  0.59345711     0.14200
H554        H  0.14526092  0.92455414  0.58568944     0.14200
H555        H  0.92213415  0.08447839  0.43607639     0.14200
H556        H  0.99689730  0.13233592  0.43288832     0.14200
H557        H  0.89939257  0.92306580  0.61352681     0.12500
H558        H  0.85260182  0.98815390  0.57655411     0.12500
H559        H  0.15107988  0.10697531  0.62041205     0.12500
H560        H  0.10420891  0.17417069  0.58235833     0.12500
H561        H  0.03283707  0.01385979  0.60114638     0.25800
H562        H  0.98608492  0.07908080  0.56199046     0.25800
N563        N  0.41760130  0.00478068  0.04820531    -0.37000
N564        N  0.39017508  0.09849986  0.06053567    -0.57500
N565        N  0.42108411  0.10952115  0.96714610    -0.37000
N566        N  0.43883088  0.01535934  0.95550769    -0.57500
C567        C  0.40328517  0.00566533  0.09050296     0.26600
C568        C  0.41998946  0.96078275  0.03477786     0.26600
C569        C  0.39408984  0.14494584  0.97792349     0.26600
C570        C  0.42064596  0.10434525  0.92266207     0.26600
C571        C  0.39749373  0.08816961  0.10329062     0.35200
C572        C  0.39415700  0.14416785  0.05857885     0.35200
C573        C  0.45646639  0.97382032  0.96257315     0.35200
C574        C  0.46245623  0.03294796  0.92214159     0.35200
C575        C  0.39579607  0.96223684  0.10462706    -0.22300
C576        C  0.40556831  0.93380097  0.06930867    -0.22300
C577        C  0.37657453  0.16346862  0.93958939    -0.22300
C578        C  0.39298372  0.13728805  0.90443874    -0.22300
C579        C  0.40253535  0.12752713  0.12854779    -0.23300
C580        C  0.40115806  0.16318299  0.10009993    -0.23300
C581        C  0.49039422  0.96396098  0.93270689    -0.23300
C582        C  0.49564701  0.00220805  0.90862173    -0.23300
C583        C  0.40577718  0.04376469  0.11859741    -0.18700
C584        C  0.44191879  0.94484420  0.99558560    -0.18700
C585        C  0.44777209  0.07217088  0.89968081    -0.18700
C586        C  0.39758729  0.16780443  0.01905729    -0.18700
H587        H  0.38653387  0.95211939  0.13758513     0.14200
H588        H  0.40487788  0.89738254  0.07100795     0.14200
H589        H  0.35657460  0.19433075  0.93716156     0.14200
H590        H  0.38710627  0.14324579  0.86966127     0.14200
H591        H  0.40775329  0.12976066  0.16360835     0.12500
H592        H  0.40645711  0.19871330  0.10833556     0.12500
H593        H  0.51043340  0.93315988  0.92929099     0.12500
H594        H  0.52207805  0.00631488  0.88499508     0.12500
H595        H  0.43030351  0.03239726  0.03177537     0.25800
H596        H  0.44238233  0.09277293  0.98906541     0.25800
N597        N  0.01645342  0.58772231  0.93231792    -0.37000
N598        N  0.03330402  0.61175571  0.02303873    -0.57500
N599        N  0.94288949  0.64951904  0.04015560    -0.37000
N600        N  0.92458649  0.61440268  0.94858697    -0.57500
C601        C  0.05551040  0.56540835  0.94004769     0.26600
C602        C  0.99330119  0.56223244  0.90234732     0.26600
C603        C  0.95498075  0.63842988  0.08170155     0.26600
C604        C  0.89760165  0.64920884  0.03911086     0.26600
C605        C  0.07605959  0.60656389  0.00922019     0.35200
C606        C  0.03487672  0.62634698  0.06567784     0.35200
C607        C  0.92435026  0.60794453  0.90426412     0.35200
C608        C  0.89222680  0.64545038  0.95823998     0.35200
C609        C  0.05822162  0.52665932  0.91321299    -0.22300
C610        C  0.01838380  0.52359993  0.89113992    -0.22300
C611        C  0.91690492  0.63634701  0.10807778    -0.22300
C612        C  0.88059942  0.64312655  0.08104373    -0.22300
C613        C  0.10484281  0.61937425  0.04376539    -0.23300
C614        C  0.07860748  0.63042842  0.07974182    -0.23300
C615        C  0.89105290  0.63420865  0.88516368    -0.23300
C616        C  0.87085362  0.65823208  0.91935845    -0.23300
C617        C  0.08754904  0.57743015  0.97265510    -0.18700
C618        C  0.95233712  0.57597153  0.88232023    -0.18700
C619        C  0.87183697  0.64679519  0.00028727    -0.18700
C620        C  0.99834213  0.62327988  0.09426322    -0.18700
H621        H  0.08511747  0.50160033  0.91126719     0.14200
H622        H  0.00913115  0.49445669  0.87112843     0.14200
H623        H  0.91481375  0.62869521  0.14273319     0.14200
H624        H  0.84568277  0.64062748  0.09046642     0.14200
H625        H  0.14098786  0.61808719  0.04482491     0.12500
H626        H  0.09021603  0.63830832  0.11300462     0.12500
H627        H  0.88127358  0.63484268  0.85064298     0.12500
H628        H  0.84154663  0.67995310  0.91609825     0.12500
H629        H  0.00684555  0.61926466  0.94590386     0.25800
H630        H  0.96380272  0.65226290  0.01285302     0.25800
N631        N  0.54996226  0.43825894  0.04552004    -0.37000
N632        N  0.47073412  0.45142995  0.10558201    -0.57500
N633        N  0.48313441  0.54646306  0.08490831    -0.37000
N634        N  0.56505389  0.53673958  0.03717834    -0.57500
C635        C  0.54650506  0.40224747  0.07211178     0.26600
C636        C  0.59384445  0.44262271  0.03511467     0.26600
C637        C  0.44634178  0.54572325  0.11037520     0.26600
C638        C  0.49722594  0.58979081  0.08415769     0.26600
C639        C  0.46867092  0.40649172  0.09644709     0.35200
C640        C  0.42791272  0.46557148  0.11023099     0.35200
C641        C  0.58461887  0.51602154  0.00191644     0.35200
C642        C  0.55068811  0.57768614  0.02331628     0.35200
C643        C  0.58856482  0.38298512  0.07849746    -0.22300
C644        C  0.61875433  0.40885900  0.05532050    -0.22300
C645        C  0.43765680  0.58822726  0.12855677    -0.22300
C646        C  0.47061981  0.61608036  0.11303614    -0.22300
C647        C  0.42503986  0.39113331  0.09822496    -0.23300
C648        C  0.39898631  0.42887507  0.10714602    -0.23300
C649        C  0.58316570  0.54422059  0.96579173    -0.23300
C650        C  0.56352132  0.58412686  0.97989975    -0.23300
C651        C  0.50532977  0.38115066  0.08104562    -0.18700
C652        C  0.60980519  0.47549889  0.00579153    -0.18700
C653        C  0.52108028  0.60634883  0.04751451    -0.18700
C654        C  0.41485802  0.51138372  0.10621754    -0.18700
H655        H  0.59617780  0.35270326  0.09694175     0.14200
H656        H  0.65456342  0.40305804  0.05282280     0.14200
H657        H  0.40862176  0.59872564  0.14783677     0.14200
H658        H  0.47148021  0.65235043  0.11918450     0.14200
H659        H  0.41313040  0.35703361  0.09120059     0.12500
H660        H  0.36279318  0.42952302  0.10863105     0.12500
H661        H  0.59406588  0.53702434  0.93237287     0.12500
H662        H  0.55675459  0.61329403  0.95952028     0.12500
H663        H  0.52312589  0.45663621  0.03221120     0.25800
H664        H  0.49256793  0.52020535  0.06324537     0.25800
N665        N  0.86577095  0.47556545  0.53199260    -0.37000
N666        N  0.85783294  0.47604348  0.43615746    -0.57500
N667        N  0.85611088  0.57542611  0.44230331    -0.37000
N668        N  0.85377736  0.57332605  0.53937175    -0.57500
C669        C  0.85928766  0.43116093  0.52219895     0.26600
C670        C  0.85954872  0.48129334  0.57597818     0.26600
C671        C  0.86425516  0.56961498  0.39842100     0.26600
C672        C  0.85982046  0.62038617  0.45192599     0.26600
C673        C  0.86443038  0.43088500  0.44071393     0.35200
C674        C  0.86311061  0.48432421  0.39285294     0.35200
C675        C  0.85854467  0.56500068  0.58288910     0.35200
C676        C  0.85835341  0.61867222  0.53503370     0.35200
C677        C  0.84869268  0.40856544  0.56068052    -0.22300
C678        C  0.84959130  0.44029336  0.59484837    -0.22300
C679        C  0.86960498  0.61148277  0.37926885    -0.22300
C680        C  0.86586740  0.64350230  0.41280214    -0.22300
C681        C  0.87140073  0.40959201  0.40021407    -0.23300
C682        C  0.86969899  0.44326201  0.36972113    -0.23300
C683        C  0.86301623  0.60568745  0.60650665    -0.23300
C684        C  0.86347668  0.63963907  0.57614755    -0.23300
C685        C  0.87074531  0.40979456  0.48136336    -0.18700
C686        C  0.86817942  0.52144761  0.60002323    -0.18700
C687        C  0.86729550  0.64011506  0.49481746    -0.18700
C688        C  0.87332661  0.52777949  0.37609467    -0.18700
H689        H  0.84177222  0.37283619  0.56416422     0.14200
H690        H  0.84422365  0.43397172  0.62959745     0.14200
H691        H  0.87716476  0.61803723  0.34497378     0.14200
H692        H  0.86924273  0.67969011  0.40900560     0.14200
H693        H  0.87859136  0.37386177  0.39367708     0.12500
H694        H  0.87483379  0.43777353  0.33473859     0.12500
H695        H  0.86729376  0.61038569  0.64175300     0.12500
H696        H  0.86929722  0.67538910  0.58318683     0.12500
H697        H  0.87877692  0.49947932  0.51092895     0.25800
H698        H  0.85328762  0.54998178  0.46497164     0.25800
N699        N  0.51888664  0.91734669  0.44153022    -0.37000
N700        N  0.52983864  0.89738020  0.53408508    -0.57500
N701        N  0.40733392  0.90920583  0.55985158    -0.37000
N702        N  0.42228425  0.90165749  0.43910310    -0.57500
C703        C  0.56424260  0.91775686  0.44559406     0.26600
C704        C  0.50957869  0.91889881  0.39774057     0.26600
C705        C  0.44440650  0.88529824  0.57182396     0.26600
C706        C  0.38966308  0.88619352  0.52490532     0.26600
C707        C  0.57205867  0.91083598  0.52719414     0.35200
C708        C  0.52335674  0.89992184  0.57826707     0.35200
C709        C  0.42625113  0.91708407  0.39775353     0.35200
C710        C  0.37795418  0.90095891  0.44806646     0.35200
C711        C  0.58388549  0.91839975  0.40426001    -0.22300
C712        C  0.54938658  0.91847325  0.37402264    -0.22300
C713        C  0.44730464  0.84467440  0.54787561    -0.22300
C714        C  0.41240232  0.84507788  0.51828297    -0.22300
C715        C  0.59332923  0.91851647  0.56777869    -0.23300
C716        C  0.56205400  0.91260107  0.60007507    -0.23300
C717        C  0.38438785  0.92392709  0.37901635    -0.23300
C718        C  0.35369378  0.91275292  0.41081746    -0.23300
C719        C  0.58823639  0.92415378  0.48542040    -0.18700
C720        C  0.46714718  0.92986610  0.37921206    -0.18700
C721        C  0.36265642  0.90620833  0.49214302    -0.18700
C722        C  0.48034777  0.90406651  0.59597587    -0.18700
H723        H  0.61936202  0.92009511  0.39687370     0.14200
H724        H  0.55312685  0.91969831  0.33855125     0.14200
H725        H  0.47434806  0.81974250  0.54871039     0.14200
H726        H  0.40742039  0.82060283  0.49144502     0.14200
H727        H  0.62695907  0.92960549  0.57419686     0.12500
H728        H  0.56627752  0.91983601  0.63513394     0.12500
H729        H  0.37697886  0.93697709  0.34654509     0.12500
H730        H  0.31767904  0.91522888  0.40806443     0.12500
H731        H  0.49574189  0.92154941  0.46703129     0.25800
H732        H  0.39891234  0.94230122  0.57015550     0.25800
C733        C  0.14860700  0.01566799  0.50789888    -0.26700
C734        C  0.16140995  0.01239149  0.55267731    -0.14800
C735        C  0.20359363  0.02867349  0.56508323     0.35900
C736        C  0.22406687  0.06088364  0.53857244    -0.26100
C737        C  0.20058312  0.07768346  0.50177537    -0.15400
C738        C  0.16611085  0.05109203  0.48305319     0.37000
N739        N  0.14404537  0.06455112  0.44311603    -0.89600
H740        H  0.11761805  0.00013130  0.49669800     0.18100
H741        H  0.25278853  0.07912866  0.55169172     0.18100
N742        N  0.22156892  0.01849278  0.60763017    -0.88700
H743        H  0.11050470  0.07227095  0.45057000     0.35400
H744        H  0.14446580  0.03674500  0.42093724     0.40500
H745        H  0.22432391  0.04909765  0.62567837     0.40200
H746        H  0.25386351  0.00504535  0.60272715     0.35000
C747        C  0.18889669  0.53874123  0.02771541    -0.26700
C748        C  0.16650513  0.50654443  0.05307287    -0.14800
C749        C  0.12987912  0.48327242  0.03493112     0.35900
C750        C  0.10791266  0.50213878  0.99905533    -0.26100
C751        C  0.12323091  0.54313545  0.98149599    -0.15400
C752        C  0.16763832  0.55645731  0.99042246     0.37000
N753        N  0.18832058  0.59242062  0.96686405    -0.89600
H754        H  0.21901328  0.55484085  0.04039031     0.18100
H755        H  0.07466745  0.48969246  0.99120446     0.18100
N756        N  0.11037103  0.44584677  0.05736936    -0.88700
H757        H  0.16803730  0.62163851  0.96911275     0.35400
H758        H  0.18991982  0.58236901  0.93348988     0.40500
H759        H  0.10841062  0.41836367  0.03490101     0.40200
H760        H  0.07769120  0.45496083  0.06678038     0.35000
C761        C  0.50837753  0.06044225  0.18700340    -0.26700
C762        C  0.48679881  0.08185829  0.22300683    -0.14800
C763        C  0.44348285  0.06619206  0.23418305     0.35900
C764        C  0.41693432  0.04648603  0.20061450    -0.26100
C765        C  0.43503979  0.03941924  0.15825374    -0.15400
C766        C  0.48229953  0.04154903  0.15296480     0.37000
N767        N  0.50379099  0.03044666  0.11170134    -0.89600
H768        H  0.54313326  0.06803664  0.18001451     0.18100
H769        H  0.38121999  0.04269684  0.20587550     0.18100
N770        N  0.42272289  0.07920717  0.27542443    -0.88700
H771        H  0.49079309  0.05154713  0.08724461     0.35400
H772        H  0.49682793  0.99655698  0.10325911     0.40500
H773        H  0.44609064  0.09543651  0.29609319     0.40200
H774        H  0.41384269  0.04928271  0.29116196     0.35000
C775        C  0.68201527  0.53857346  0.94530682    -0.26700
C776        C  0.68922091  0.56624064  0.98322876    -0.14800
C777        C  0.69792792  0.54372840  0.02356668     0.35900
C778        C  0.68371895  0.49873207  0.02807799    -0.26100
C779        C  0.65836181  0.47872119  0.99392460    -0.15400
C780        C  0.66853312  0.49300948  0.95081104     0.37000
N781        N  0.65745970  0.46455990  0.91337498    -0.89600
H782        H  0.68101305  0.55321301  0.91271741     0.18100
H783        H  0.68293974  0.48474239  0.06095602     0.18100
N784        N  0.71803380  0.56704640  0.06063373    -0.88700
H785        H  0.68667877  0.45967801  0.89470704     0.35400
H786        H  0.63418975  0.48169154  0.89362359     0.40500
H787        H  0.74702939  0.54898721  0.06955815     0.40200
H788        H  0.69565565  0.56642282  0.08720425     0.35000
C789        C  0.54332858  0.27241627  0.04613257    -0.26700
C790        C  0.55814964  0.28947531  0.00548509    -0.14800
C791        C  0.53080206  0.32187953  0.98405262     0.35900
C792        C  0.49781344  0.34504867  0.00874179    -0.26100
C793        C  0.49693490  0.33927910  0.05467698    -0.15400
C794        C  0.51289152  0.29837009  0.07154274     0.37000
N795        N  0.50424485  0.28774399  0.11656893    -0.89600
H796        H  0.56171234  0.24502397  0.06180021     0.18100
H797        H  0.48201290  0.37493588  0.99474062     0.18100
N798        N  0.54094052  0.33640700  0.94027471    -0.88700
H799        H  0.53477789  0.28807288  0.13351752     0.35400
H800        H  0.49148686  0.25475888  0.11690942     0.40500
H801        H  0.54879302  0.37101966  0.94204803     0.40200
H802        H  0.51211479  0.33292557  0.92078049     0.35000
C803        C  0.44489497  0.70461233  0.03269980    -0.26700
C804        C  0.41569453  0.68533356  0.00105529    -0.14800
C805        C  0.42969494  0.64743679  0.97559339     0.35900
C806        C  0.46908893  0.62493816  0.98724336    -0.26100
C807        C  0.49602807  0.64127054  0.02241149    -0.15400
C808        C  0.48679763  0.68463716  0.04110108     0.37000
N809        N  0.51669214  0.70613339  0.07238768    -0.89600
H810        H  0.43429821  0.73335105  0.05293257     0.18100
H811        H  0.47579856  0.59198458  0.97182779     0.18100
N812        N  0.40154230  0.62876495  0.94132132    -0.88700
H813        H  0.52647746  0.73688544  0.05883162     0.35400
H814        H  0.54614807  0.68680285  0.07576512     0.40500
H815        H  0.39253318  0.59585874  0.94989677     0.40200
H816        H  0.42023731  0.62658260  0.91211193     0.35000
C817        C  0.60747886  0.00443776  0.49327048    -0.26700
C818        C  0.62338285  0.95954997  0.48640448    -0.14800
C819        C  0.66677344  0.94821889  0.50104173     0.35900
C820        C  0.68715722  0.97657208  0.53278268    -0.26100
C821        C  0.66507966  0.01636280  0.54893206    -0.15400
C822        C  0.62762287  0.03279307  0.52546179     0.37000
N823        N  0.60573549  0.07440547  0.53910551    -0.89600
H824        H  0.57473251  0.01411630  0.48050891     0.18100
H825        H  0.71532784  0.96265757  0.55104559     0.18100
N826        N  0.68659384  0.90463222  0.49071026    -0.88700
H827        H  0.57316540  0.06680542  0.54919635     0.35400
H828        H  0.60328817  0.09522668  0.51155163     0.40500
H829        H  0.68896770  0.90139285  0.45626482     0.40200
H830        H  0.66552173  0.87908601  0.50176033     0.35000
C831        C  0.97829550  0.37427594  0.52236758    -0.26700
C832        C  0.96098722  0.34309207  0.55192320    -0.14800
C833        C  0.92142244  0.31912843  0.54002615     0.35900
C834        C  0.89532658  0.33376193  0.50451858    -0.26100
C835        C  0.90632299  0.37416981  0.48416130    -0.15400
C836        C  0.95094069  0.38967127  0.48766381     0.37000
N837        N  0.96579985  0.42570316  0.46036076    -0.89600
H838        H  0.00935501  0.39167276  0.52995650     0.18100
H839        H  0.86191338  0.32006260  0.50015454     0.18100
N840        N  0.90251153  0.28598129  0.56842911    -0.88700
H841        H  0.99479094  0.41419296  0.44402676     0.35400
H842        H  0.97436765  0.45346631  0.48080068     0.40500
H843        H  0.87476546  0.30062729  0.58459169     0.40200
H844        H  0.92554500  0.27525641  0.59225008     0.35000
C845        C  0.93066855  0.56260626  0.69694340    -0.26700
C846        C  0.96717141  0.57867866  0.67226612    -0.14800
C847        C  0.97930584  0.55462819  0.63318760     0.35900
C848        C  0.94888912  0.52382988  0.61430541    -0.26100
C849        C  0.90572132  0.51978096  0.63248845    -0.15400
C850        C  0.89881789  0.53411617  0.67652421     0.37000
N851        N  0.85680316  0.52589900  0.69758965    -0.89600
H852        H  0.92176150  0.57949018  0.72798347     0.18100
H853        H  0.95532145  0.51087349  0.58101262     0.18100
N854        N  0.01834545  0.56611585  0.60846873    -0.88700
H855        H  0.84149651  0.55732725  0.70498473     0.35400
H856        H  0.86355717  0.50984284  0.72747961     0.40500
H857        H  0.04629089  0.56301511  0.62927201     0.40200
H858        H  0.01549613  0.59999924  0.59885405     0.35000
C859        C  0.46701187  0.98704799  0.61018867    -0.26700
C860        C  0.47198831  0.94284560  0.62668791    -0.14800
C861        C  0.46403500  0.93520076  0.67134934     0.35900
C862        C  0.44289662  0.96932222  0.69676057    -0.26100
C863        C  0.42712275  0.00934504  0.67686282    -0.15400
C864        C  0.44466250  0.02098175  0.63553694     0.37000
N865        N  0.43339827  0.06421899  0.61689629    -0.89600
H866        H  0.47586343  0.99340539  0.57612661     0.18100
H867        H  0.42911797  0.95973558  0.72805567     0.18100
N868        N  0.47341205  0.89148756  0.68958411    -0.88700
H869        H  0.44807118  0.06697708  0.58569522     0.35400
H870        H  0.44792100  0.08936844  0.63714376     0.40500
H871        H  0.44343737  0.87845582  0.70161270     0.40200
H872        H  0.49539538  0.89614499  0.71628459     0.35000
C873        C  0.33464380  0.51534128  0.09036776    -0.26700
C874        C  0.37790320  0.51885100  0.07402416    -0.14800
C875        C  0.38561453  0.50847724  0.02852999     0.35900
C876        C  0.35272550  0.48559749  0.00364211    -0.26100
C877        C  0.31435448  0.47024207  0.02473534    -0.15400
C878        C  0.30322965  0.48927020  0.06682526     0.37000
N879        N  0.26460096  0.47427545  0.08984410    -0.89600
H880        H  0.32830598  0.52383671  0.12491874     0.18100
H881        H  0.36151701  0.47198992  0.97112477     0.18100
N882        N  0.42920938  0.51359070  0.00976061    -0.88700
H883        H  0.25174505  0.50305035  0.10640540     0.35400
H884        H  0.27552824  0.45245228  0.11468505     0.40500
H885        H  0.42554126  0.53127948  0.98037030     0.40200
H886        H  0.44190562  0.48116021  0.00152012     0.35000
C887        C  0.92659682  0.74101206  0.45665881    -0.26700
C888        C  0.96363641  0.71595927  0.43958764    -0.14800
C889        C  0.97689507  0.67597381  0.46094275     0.35900
C890        C  0.94727459  0.65631276  0.49074558    -0.26100
C891        C  0.90367585  0.67453677  0.49609641    -0.15400
C892        C  0.89538280  0.71993833  0.48400488     0.37000
N893        N  0.85317354  0.74236664  0.49291199    -0.89600
H894        H  0.91706941  0.77296007  0.44172584     0.18100
H895        H  0.95463875  0.62214349  0.50184718     0.18100
N896        N  0.01602798  0.65110332  0.44654599    -0.88700
H897        H  0.85998323  0.77200316  0.51140489     0.35400
H898        H  0.83332250  0.72232423  0.51304454     0.40500
H899        H  0.00584966  0.61943344  0.43385141     0.40200
H900        H  0.03623994  0.64539973  0.47428693     0.35000
C901        C  0.51043764  0.03720902  0.34128523    -0.26700
C902        C  0.53020797  0.01898680  0.30285925    -0.14800
C903        C  0.50852041  0.98253871  0.28035743     0.35900
C904        C  0.47701358  0.95675032  0.30299041    -0.26100
C905        C  0.46773707  0.96756823  0.34727935    -0.15400
C906        C  0.47923544  0.01142032  0.36400757     0.37000
N907        N  0.46522436  0.02713448  0.40698689    -0.89600
H908        H  0.52507156  0.06653870  0.35797627     0.18100
H909        H  0.46671179  0.92422855  0.28897096     0.18100
N910        N  0.52433730  0.96688418  0.23790373    -0.88700
H911        H  0.47777482  0.00482786  0.43059467     0.35400
H912        H  0.43014713  0.02658685  0.40767165     0.40500
H913        H  0.49680772  0.96576397  0.21635954     0.40200
H914        H  0.53656813  0.93356769  0.24096140     0.35000
C915        C  0.28882056  0.94431188  0.49088286    -0.26700
C916        C  0.33467921  0.94812718  0.50043276    -0.14800
C917        C  0.35491731  0.99070762  0.49357764     0.35900
C918        C  0.33399177  0.02232282  0.46557688    -0.26100
C919        C  0.29320897  0.01150262  0.44488792    -0.15400
C920        C  0.26785949  0.97531411  0.46242662     0.37000
N921        N  0.22360640  0.96496627  0.44633270    -0.89600
H922        H  0.27192330  0.91275678  0.49773211     0.18100
H923        H  0.35323913  0.05085538  0.45420635     0.18100
N924        N  0.39956411  0.99869518  0.50917962    -0.88700
H925        H  0.22553860  0.93429784  0.42819037     0.35400
H926        H  0.21233644  0.98985586  0.42463634     0.40500
H927        H  0.39911791  0.02898739  0.52796695     0.40200
H928        H  0.42026553  0.00318216  0.48195466     0.35000
C929        C  0.93474642  0.48096550  0.28053341    -0.26700
C930        C  0.97243474  0.46662680  0.30515021    -0.14800
C931        C  0.98518178  0.49292557  0.34238003     0.35900
C932        C  0.95404602  0.52401286  0.36096845    -0.26100
C933        C  0.91041746  0.52731775  0.34314889    -0.15400
C934        C  0.90298575  0.51088280  0.29974564     0.37000
N935        N  0.86081641  0.51811384  0.27796284    -0.89600
H936        H  0.92556593  0.46215477  0.25072722     0.18100
H937        H  0.96097300  0.53861479  0.39352038     0.18100
N938        N  0.02641870  0.48330467  0.36500216    -0.88700
H939        H  0.83515145  0.50499912  0.29723270     0.35400
H940        H  0.85552310  0.55324833  0.27579095     0.40500
H941        H  0.01886043  0.47400090  0.39728148     0.40200
H942        H  0.04473585  0.51342474  0.36696808     0.35000
C943        C  0.49476992  0.01751152  0.80674647    -0.26700
C944        C  0.45955041  0.98598354  0.80607681    -0.14800
C945        C  0.41525738  0.00346931  0.81302071     0.35900
C946        C  0.40952101  0.04606416  0.83391214    -0.26100
C947        C  0.44719775  0.06868546  0.85043521    -0.15400
C948        C  0.48813547  0.06022733  0.82839006     0.37000
N949        N  0.52484646  0.09054430  0.83552894    -0.89600
H950        H  0.52830631  0.00703332  0.79683456     0.18100
H951        H  0.37642540  0.05545586  0.84610575     0.18100
N952        N  0.37628554  0.97701475  0.80276382    -0.88700
H953        H  0.53609850  0.10059797  0.80453814     0.35400
H954        H  0.55107039  0.07272507  0.85070769     0.40500
H955        H  0.35590938  0.99566151  0.78130483     0.40200
H956        H  0.35841433  0.97239316  0.83202983     0.35000
C957        C  0.96713569  0.60406004  0.81032104    -0.26700
C958        C  0.94835315  0.56858831  0.83344022    -0.14800
C959        C  0.95428221  0.52420759  0.81512861     0.35900
C960        C  0.99338333  0.51494422  0.79003637    -0.26100
C961        C  0.02393770  0.55031463  0.78334824    -0.15400
C962        C  0.00704695  0.59575903  0.78742004     0.37000
N963        N  0.03339682  0.63406291  0.77581388    -0.89600
H964        H  0.95908958  0.63900387  0.81983239     0.18100
H965        H  0.00340073  0.47983301  0.78372836     0.18100
N966        N  0.92798034  0.48701799  0.83016028    -0.88700
H967        H  0.04297374  0.65085204  0.80519430     0.35400
H968        H  0.01217959  0.65668640  0.75944742     0.40500
H969        H  0.90218558  0.49944764  0.85067429     0.40200
H970        H  0.91241886  0.47236668  0.80233560     0.35000
C971        C  0.41293946  0.24666647  0.00069203    -0.26700
C972        C  0.42942707  0.20603187  0.01781629    -0.14800
C973        C  0.47468037  0.19348971  0.00944534     0.35900
C974        C  0.49540660  0.21050279  0.97171576    -0.26100
C975        C  0.47280674  0.24285493  0.94639641    -0.15400
C976        C  0.43444990  0.26554352  0.96457019     0.37000
N977        N  0.41375600  0.30414233  0.94391847    -0.89600
H978        H  0.37944635  0.25853825  0.00935761     0.18100
H979        H  0.52593592  0.19449376  0.95925929     0.18100
N980        N  0.49507939  0.15673623  0.03321197    -0.88700
H981        H  0.38323240  0.29359373  0.93021083     0.35400
H982        H  0.43353699  0.31580152  0.91814682     0.40500
H983        H  0.49869667  0.16779625  0.06614351     0.40200
H984        H  0.52746633  0.14993939  0.02136600     0.35000
C985        C  0.77599898  0.60713510  0.94540455    -0.26700
C986        C  0.79402728  0.56338786  0.93582476    -0.14800
C987        C  0.82286233  0.54342915  0.96686406     0.35900
C988        C  0.83994095  0.57092572  0.00146629    -0.26100
C989        C  0.83117349  0.61830871  0.00187492    -0.15400
C990        C  0.79307143  0.63413586  0.97973050     0.37000
N991        N  0.77697052  0.68001541  0.98593374    -0.89600
H992        H  0.75335659  0.62291032  0.92214828     0.18100
H993        H  0.86764479  0.55764466  0.02087317     0.18100
N994        N  0.83984428  0.49808155  0.95988406    -0.88700
H995        H  0.80292018  0.70266639  0.98000854     0.35400
H996        H  0.76794018  0.68422898  0.01917983     0.40500
H997        H  0.83288010  0.47960368  0.98819039     0.40200
H998        H  0.87473593  0.49966899  0.95662084     0.35000
C999        C  0.96103785  0.51224030  0.13224503    -0.26700
C1000       C  0.94175993  0.52816801  0.17180032    -0.14800
C1001       C  0.96075477  0.56652908  0.19355324     0.35900
C1002       C  0.99031681  0.59432805  0.17049487    -0.26100
C1003       C  0.99899685  0.58481682  0.12572937    -0.15400
C1004       C  0.98934177  0.54071400  0.10842583     0.37000
N1005       N  0.00230510  0.52814776  0.06403544    -0.89600
H1006       H  0.94779237  0.48189933  0.11613504     0.18100
H1007       H  0.99895944  0.62731534  0.18463945     0.18100
N1008       N  0.94451219  0.58125760  0.23611472    -0.88700
H1009       H  0.99115400  0.49545997  0.05560948     0.35400
H1010       H  0.03734595  0.52656858  0.06355950     0.40500
H1011       H  0.93012730  0.61370037  0.23315150     0.40200
H1012       H  0.97203688  0.58395592  0.25755119     0.35000
C1013       C  0.42470140  0.86353541  0.99369283    -0.26700
C1014       C  0.45748459  0.89715857  0.99415292    -0.14800
C1015       C  0.50097318  0.88670452  0.00956227     0.35900
C1016       C  0.50818942  0.84578760  0.03097826    -0.26100
C1017       C  0.47058143  0.82251848  0.04615513    -0.15400
C1018       C  0.42961034  0.82736038  0.02267802     0.37000
N1019       N  0.39060080  0.80248426  0.03457976    -0.89600
H1020       H  0.39165942  0.87109759  0.98035535     0.18100
H1021       H  0.54092015  0.84014364  0.04581626     0.18100
N1022       N  0.53541237  0.92038750  0.01046606    -0.88700
H1023       H  0.37661173  0.78938933  0.00531061     0.35400
H1024       H  0.36703648  0.82539277  0.04819988     0.40500
H1025       H  0.56369637  0.90651553  0.99455616     0.40200
H1026       H  0.54399085  0.92734806  0.04350984     0.35000
C1027       C  0.88450213  0.99868481  0.45936088    -0.26700
C1028       C  0.87340741  0.03069219  0.49269232    -0.14800
C1029       C  0.82924077  0.03398924  0.50809791     0.35900
C1030       C  0.80068806  0.99748841  0.49961581    -0.26100
C1031       C  0.81568666  0.95983022  0.47430218    -0.15400
C1032       C  0.85568406  0.96284468  0.44966914     0.37000
N1033       N  0.86967351  0.92675563  0.41964285    -0.89600
H1034       H  0.91837183  0.99723575  0.44634701     0.18100
H1035       H  0.76918752  0.99683228  0.51647278     0.18100
N1036       N  0.81601586  0.07040849  0.53774963    -0.88700
H1037       H  0.90166288  0.93294622  0.40711999     0.35400
H1038       H  0.84783482  0.92727185  0.39247967     0.40500
H1039       H  0.78799116  0.08665968  0.52402217     0.40200
H1040       H  0.80607516  0.05650062  0.56768500     0.35000
C1041       C  0.99520347  0.18739757  0.56554859    -0.26700
C1042       C  0.02228028  0.18483604  0.52774126    -0.14800
C1043       C  0.00695558  0.20861620  0.49025969     0.35900
C1044       C  0.96052608  0.21657034  0.48524426    -0.26100
C1045       C  0.93056849  0.20348757  0.51843434    -0.15400
C1046       C  0.94862247  0.19097304  0.56008658     0.37000
N1047       N  0.92015085  0.17811316  0.59577310    -0.89600
H1048       H  0.00767955  0.17338024  0.59620509     0.18100
H1049       H  0.94785117  0.22989496  0.45439982     0.18100
N1050       N  0.03617219  0.21619333  0.45357137    -0.88700
H1051       H  0.92778057  0.19848411  0.62353503     0.35400
H1052       H  0.92759707  0.14427957  0.60338789     0.40500
H1053       H  0.03661167  0.25128529  0.44852869     0.40200
H1054       H  0.06903002  0.20657486  0.46184010     0.35000
C1055       C  0.01365401  0.81349549  0.54299600    -0.26700
C1056       C  0.02920455  0.82989906  0.50219666    -0.14800
C1057       C  0.00753442  0.86843216  0.48531455     0.35900
C1058       C  0.98440538  0.89783239  0.51473248    -0.26100
C1059       C  0.98393358  0.88868528  0.56039916    -0.15400
C1060       C  0.99308874  0.84374721  0.57359970     0.37000
N1061       N  0.98884729  0.83047056  0.61887133    -0.89600
H1062       H  0.02716755  0.78169182  0.55521687     0.18100
H1063       H  0.97430663  0.93111317  0.50320886     0.18100
N1064       N  0.01520313  0.88157442  0.44066430    -0.88700
H1065       H  0.96682141  0.80304317  0.61933505     0.35400
H1066       H  0.97367042  0.85659066  0.63773903     0.40500
H1067       H  0.03068791  0.91335436  0.44140918     0.40200
H1068       H  0.98392873  0.88534742  0.42525739     0.35000
loop_ 
_geom_bond_atom_site_label_1 
_geom_bond_atom_site_label_2 
_geom_bond_distance 
_geom_bond_site_symmetry_2 
_ccdc_geom_bond_type 
C1            N2   1.383       .  A
C1            N6   1.373       .  A
C1          C131   1.496       .  S
N2            C3   1.374       .  A
C3            N4   1.341       .  A
C3          C347   1.478       .  S
N4            C5   1.339       .  A
C5            N6   1.358       .  A
C5         C1056   1.484       .  S
C7            N8   1.365       .  A
C7           N12   1.380       .  A
C7          C204   1.486       .  S
N8            C9   1.355       .  A
C9           N10   1.344       .  A
C9         C1045   1.487       .  S
N10          C11   1.347       .  A
C11          N12   1.373       .  A
C11         C400   1.486       .  S
C13          N14   1.345       .  A
C13          N18   1.377       .  A
C13         C222   1.476       .  S
N14          C15   1.338       .  A
C15          N16   1.355       .  A
C15        C1031   1.462       .  S
N16          C17   1.361       .  A
C17          N18   1.381       .  A
C17         C486   1.490       .  S
C19          N20   1.356       .  A
C19          N24   1.377       .  A
C19         C120   1.477       .  S
N20          C21   1.349       .  A
C21          N22   1.349       .  A
C21        C1017   1.477       .  S
N22          C23   1.352       .  A
C23          N24   1.377       .  A
C23         C233   1.484       .  S
C25          N26   1.368       .  A
C25          N30   1.378       .  A
C25         C168   1.486       .  S
N26          C27   1.358       .  A
C27          N28   1.345       .  A
C27        C1000   1.477       .  S
N28          C29   1.349       .  A
C29          N30   1.372       .  A
C29         C258   1.484       .  S
C31          N32   1.382       .  A
C31          N36   1.370       .  A
C31         C408   1.480       .  S
N32          C33   1.367       .  A
C33          N34   1.338       .  A
C33         C450   1.479       .  S
N34          C35   1.337       .  A
C35          N36   1.356       .  A
C35         C986   1.475       .  S
C37          N38   1.375       .  A
C37          N42   1.341       .  A
C37         C286   1.474       .  S
N38          C39   1.378       .  A
C39          N40   1.368       .  A
C39         C434   1.487       .  S
N40          C41   1.354       .  A
C41          N42   1.338       .  A
C41         C975   1.468       .  S
C43          N44   1.377       .  A
C43          N48   1.373       .  A
C43         C294   1.487       .  S
N44          C45   1.367       .  A
C45          N46   1.345       .  A
C45         C336   1.479       .  S
N46          C47   1.341       .  A
C47          N48   1.361       .  A
C47         C961   1.496       .  S
C49          N50   1.344       .  A
C49          N54   1.372       .  A
C49         C372   1.479       .  S
N50          C51   1.343       .  A
C51          N52   1.364       .  A
C51         C944   1.498       .  S
N52          C53   1.375       .  A
C53          N54   1.379       .  A
C53         C461   1.500       .  S
C55          N56   1.366       .  A
C55          N60   1.350       .  A
C55         C206   1.476       .  S
N56          C57   1.375   1_655  A
C57          N58   1.368       .  A
C57          C66   1.473       .  S
N58          C59   1.353   1_455  A
C59          N60   1.343       .  A
C59         C930   1.478       .  S
O61         Mg63   2.114       .  S
O61         Mg69   2.140       .  S
O61          C96   1.238       .  S
C62          O75   1.237       .  S
C62          O99   1.269       .  A
C62         H101   1.081       .  S
Mg63         O92   2.157       .  S
Mg63        O107   2.281       .  S
Mg63        O103   2.178       .  S
Mg63         O74   2.281       .  S
O64        Mg106   2.153       .  S
O64         Mg89   2.152       .  S
O64          C85   1.241       .  S
O65          C96   1.272       .  A
O65         Mg89   2.305       .  S
C66          O68   1.280       .  A
C66          O80   1.276       .  A
O67          C95   1.277       .  A
O67         Mg69   2.314       .  S
O68        Mg100   2.316       .  S
Mg69         O75   2.123       .  S
Mg69         O83   2.355       .  S
Mg69         O71   2.290       .  S
C70         C517   1.474       .  S
C70         O108   1.271       .  A
C70          O76   1.276       .  A
O71          C78   1.281       .  A
H72          C85   1.081       .  S
C73          O87   1.235       .  S
C73          O88   1.268       .  A
C73          H98   1.081       .  S
O74          C97   1.267       .  A
O75         Mg89   2.176       .  S
O76        Mg106   2.283       .  S
C77         C275   1.483       .  S
C77          O90   1.271       .  A
C77          O82   1.292       .  A
C78         C511   1.491       .  S
C78         O105   1.283       .  A
Mg79         O86   2.121       .  S
Mg79         O87   2.168       .  S
Mg79         O80   2.285       .  S
Mg79         O81   2.297       .  S
Mg79        O108   2.304       .  S
O81          C85   1.273       .  A
O82         Mg89   2.432       .  S
O83         C102   1.278       .  A
O84         C104   1.281       .  A
O84        Mg100   2.381       .  S
O86        Mg100   2.173       .  S
O86          C97   1.235       .  S
O87        Mg106   2.126       .  S
O88        Mg100   2.291       .  S
Mg89        O105   2.363       .  S
O90        Mg106   2.244       .  S
H91          C96   1.081       .  S
O92        Mg100   2.174       .  S
O92          C95   1.243       .  S
H93          C95   1.081       .  S
H94          C97   1.081       .  S
O99        Mg106   2.281       .  S
C102        C109   1.492       .  S
C102        O107   1.270       .  A
O103        C104   1.264       .  A
C104        C523   1.462       .  S
C109        N110   1.379       .  A
C109        N114   1.374       .  A
N110        C111   1.371   1_545  A
C111        N112   1.344       .  A
C111        C124   1.481       .  S
N112        C113   1.340   1_565  A
C113        N114   1.360       .  A
C113        C919   1.486       .  S
O115       Mg117   2.139       .  S
O115       Mg123   2.178       .  S
O115        C150   1.237       .  S
C116        O129   1.239       .  S
C116        O153   1.273       .  A
C116        H155   1.081       .  S
Mg117       O146   2.146       .  S
Mg117       O161   2.319       .  S
Mg117       O157   2.355       .  S
Mg117       O128   2.312       .  S
O118       Mg160   2.158       .  S
O118       Mg143   2.137       .  S
O118        C139   1.238       .  S
O119        C150   1.270       .  A
O119       Mg143   2.290       .  S
C120        O122   1.265       .  A
C120        O134   1.287       .  A
O121        C149   1.268       .  A
O121       Mg123   2.289       .  S
O122       Mg154   2.194       .  S
Mg123       O129   2.162       .  S
Mg123       O137   2.318       .  S
Mg123       O125   2.391       .  S
C124        O162   1.280       .  A
C124        O130   1.282       .  A
O125        C132   1.284       .  A
H126        C139   1.081       .  S
C127        O141   1.236       .  S
C127        O142   1.270       .  A
C127        H152   1.081       .  S
O128        C151   1.277       .  A
O129       Mg143   2.148       .  S
O130       Mg160   2.304       .  S
C131        O144   1.279       .  A
C131        O136   1.272       .  A
C132        C269   1.471       .  S
C132        O159   1.267       .  A
Mg133       O140   2.170       .  S
Mg133       O141   2.175       .  S
Mg133       O134   2.427       .  S
Mg133       O135   2.310       .  S
Mg133       O162   2.332       .  S
O135        C139   1.273       .  A
O136       Mg143   2.290       .  S
O137        C156   1.280       .  A
O138        C158   1.273       .  A
O138       Mg154   2.284       .  S
O140       Mg154   2.147       .  S
O140        C151   1.243       .  S
O141       Mg160   2.141       .  S
O142       Mg154   2.287       .  S
Mg143       O159   2.214       .  S
O144       Mg160   2.364       .  S
H145        C150   1.081       .  S
O146       Mg154   2.105       .  S
O146        C149   1.236       .  S
H147        C149   1.081       .  S
H148        C151   1.081       .  S
O153       Mg160   2.302       .  S
C156        C521   1.479       .  S
C156        O161   1.283       .  A
O157        C158   1.278       .  A
C158        C495   1.488       .  S
O163       Mg165   2.148       .  S
O163       Mg171   2.177       .  S
O163        C198   1.237       .  S
C164        O177   1.243       .  S
C164        O201   1.277       .  A
C164        H203   1.081       .  S
Mg165       O194   2.178       .  S
Mg165       O209   2.342       .  S
Mg165       O205   2.351       .  S
Mg165       O176   2.312       .  S
O166       Mg208   2.157       .  S
O166       Mg191   2.121       .  S
O166        C187   1.237       .  S
O167        C198   1.270       .  A
O167       Mg191   2.290       .  S
C168        O170   1.275       .  A
C168        O182   1.285       .  A
O169        C197   1.270       .  A
O169       Mg171   2.307       .  S
O170       Mg202   2.281       .  S
Mg171       O177   2.157       .  S
Mg171       O185   2.324       .  S
Mg171       O173   2.439       .  S
C172        C503   1.484       .  S
C172        O210   1.280       .  A
C172        O178   1.283       .  A
O173        C180   1.290       .  A
H174        C187   1.081       .  S
C175        O189   1.234       .  S
C175        O190   1.266       .  A
C175        H200   1.081       .  S
O176        C199   1.276       .  A
O177       Mg191   2.149       .  S
O178       Mg208   2.301       .  S
C179        C515   1.488       .  S
C179        O192   1.273       .  A
C179        O184   1.267       .  A
C180        C211   1.486       .  S
C180        O207   1.264       .  A
Mg181       O188   2.162       .  S
Mg181       O189   2.164       .  S
Mg181       O182   2.388       .  S
Mg181       O183   2.298       .  S
Mg181       O210   2.336       .  S
O183        C187   1.270       .  A
O184       Mg191   2.243       .  S
O185        C204   1.283       .  A
O186        C206   1.266       .  A
O186       Mg202   2.214       .  S
O188       Mg202   2.155       .  S
O188        C199   1.242       .  S
O189       Mg208   2.103       .  S
O190       Mg202   2.272       .  S
Mg191       O207   2.208       .  S
O192       Mg208   2.347       .  S
H193        C198   1.081       .  S
O194       Mg202   2.161       .  S
O194        C197   1.235       .  S
H195        C197   1.081       .  S
H196        C199   1.081       .  S
O201       Mg208   2.310       .  S
C204        O209   1.285       .  A
O205        C206   1.275       .  A
C211        N212   1.376       .  A
C211        N216   1.370       .  A
N212        C213   1.373   1_545  A
C213        N214   1.341       .  A
C213        C226   1.475       .  S
N214        C215   1.342   1_565  A
C215        N216   1.358       .  A
C215        C902   1.475       .  S
O217       Mg219   2.138       .  S
O217       Mg225   2.170       .  S
O217        C252   1.238       .  S
C218        O231   1.239       .  S
C218        O255   1.274       .  A
C218        H257   1.081       .  S
Mg219       O248   2.170       .  S
Mg219       O263   2.281       .  S
Mg219       O259   2.315       .  S
Mg219       O230   2.280       .  S
O220       Mg262   2.158       .  S
O220       Mg245   2.133       .  S
O220        C241   1.238       .  S
O221        C252   1.272       .  A
O221       Mg245   2.301       .  S
C222        O224   1.275       .  A
C222        O236   1.277       .  A
O223        C251   1.269       .  A
O223       Mg225   2.291       .  S
O224       Mg256   2.324       .  S
Mg225       O231   2.160       .  S
Mg225       O239   2.357       .  S
Mg225       O227   2.329       .  S
C226        O264   1.270       .  A
C226        O232   1.284       .  A
O227        C234   1.285       .  A
H228        C241   1.081       .  S
C229        O243   1.238       .  S
C229        O244   1.270       .  A
C229        H254   1.081       .  S
O230        C253   1.269       .  A
O231       Mg245   2.171       .  S
O232       Mg262   2.336       .  S
C233        O246   1.275       .  A
C233        O238   1.282       .  A
C234        C507   1.482       .  S
C234        O261   1.274       .  A
Mg235       O242   2.103       .  S
Mg235       O243   2.158       .  S
Mg235       O236   2.288       .  S
Mg235       O237   2.297       .  S
Mg235       O264   2.273       .  S
O237        C241   1.271       .  A
O238       Mg245   2.324       .  S
O239        C258   1.281       .  A
O240        C260   1.276       .  A
O240       Mg256   2.270       .  S
O242       Mg256   2.161       .  S
O242        C253   1.238       .  S
O243       Mg262   2.117       .  S
O244       Mg256   2.285       .  S
Mg245       O261   2.306       .  S
O246       Mg262   2.312       .  S
H247        C252   1.081       .  S
O248       Mg256   2.121       .  S
O248        C251   1.236       .  S
H249        C251   1.081       .  S
H250        C253   1.081       .  S
O255       Mg262   2.310       .  S
C258        O263   1.277       .  A
O259        C260   1.275       .  A
C260        C265   1.472       .  S
C265        N266   1.346       .  A
C265        N270   1.368       .  A
N266        C267   1.342       .  A
C267        N268   1.354   1_655  A
C267        C888   1.475       .  S
N268        C269   1.368       .  A
C269        N270   1.373   1_455  A
C271        N272   1.368       .  A
C271        N276   1.384   1_556  A
C271        C293   1.501       .  S
N272        C273   1.360   1_556  A
C273        N274   1.345       .  A
C273        C877   1.475       .  S
N274        C275   1.342       .  A
C275        N276   1.376       .  A
O277       Mg279   2.155       .  S
O277       Mg285   2.164       .  S
O277        C312   1.238       .  S
C278        O291   1.238       .  S
C278        O315   1.273       .  A
C278        H317   1.081       .  S
Mg279       O308   2.174       .  S
Mg279       O323   2.334       .  S
Mg279       O319   2.326       .  S
Mg279       O290   2.290       .  S
O280       Mg322   2.155       .  S
O280       Mg305   2.161       .  S
O280        C301   1.240       .  S
O281        C312   1.272       .  A
O281       Mg305   2.304       .  S
C282        C325   1.491       .  S
C282        O284   1.275       .  A
C282        O296   1.283       .  A
O283        C311   1.270       .  A
O283       Mg285   2.288       .  S
O284       Mg316   2.311       .  S
Mg285       O291   2.164       .  S
Mg285       O299   2.300       .  S
Mg285       O287   2.310       .  S
C286        O324   1.270       .  A
C286        O292   1.283       .  A
O287        C294   1.278       .  A
H288        C301   1.081       .  S
C289        O303   1.238       .  S
C289        O304   1.271       .  A
C289        H314   1.081       .  S
O290        C313   1.271       .  A
O291       Mg305   2.167       .  S
O292       Mg322   2.318       .  S
C293        O306   1.278       .  A
C293        O298   1.289       .  A
C294        O321   1.282       .  A
Mg295       O302   2.117       .  S
Mg295       O303   2.174       .  S
Mg295       O296   2.352       .  S
Mg295       O297   2.315       .  S
Mg295       O324   2.286       .  S
O297        C301   1.275       .  A
O298       Mg305   2.393       .  S
O299        C318   1.276       .  A
O300        C320   1.277       .  A
O300       Mg316   2.277       .  S
O302       Mg316   2.151       .  S
O302        C313   1.238       .  S
O303       Mg322   2.145       .  S
O304       Mg316   2.292       .  S
Mg305       O321   2.337       .  S
O306       Mg322   2.321       .  S
H307        C312   1.081       .  S
O308       Mg316   2.131       .  S
O308        C311   1.238       .  S
H309        C311   1.081       .  S
H310        C313   1.081       .  S
O315       Mg322   2.305       .  S
C318        C387   1.482       .  S
C318        O323   1.281       .  A
O319        C320   1.277       .  A
C320        C527   1.476       .  S
C325        N326   1.385       .  A
C325        N330   1.367       .  A
N326        C327   1.375   1_545  A
C327        N328   1.339       .  A
C327        C348   1.489       .  S
N328        C329   1.342   1_565  A
C329        N330   1.355       .  A
C329        C863   1.465       .  S
O331       Mg333   2.174       .  S
O331       Mg339   2.132       .  S
O331        C366   1.242       .  S
C332        O345   1.236       .  S
C332        O369   1.268       .  A
C332        H371   1.081       .  S
Mg333       O362   2.146       .  S
Mg333       O377   2.403       .  S
Mg333       O373   2.272       .  S
Mg333       O344   2.296       .  S
O334       Mg376   2.150       .  S
O334       Mg359   2.150       .  S
O334        C355   1.239       .  S
O335        C366   1.278       .  A
O335       Mg359   2.327       .  S
C336        O338   1.275       .  A
C336        O350   1.271       .  A
O337        C365   1.275       .  A
O337       Mg339   2.305       .  S
O338       Mg370   2.344       .  S
Mg339       O345   2.114       .  S
Mg339       O353   2.231       .  S
Mg339       O341   2.294       .  S
C340        C381   1.495       .  S
C340        O378   1.273       .  A
C340        O346   1.282       .  A
O341        C348   1.277       .  A
H342        C355   1.081       .  S
C343        O357   1.240       .  S
C343        O358   1.274       .  A
C343        H368   1.081       .  S
O344        C367   1.270       .  A
O345       Mg359   2.156       .  S
O346       Mg376   2.400       .  S
C347        O360   1.274       .  A
C347        O352   1.289       .  A
C348        O375   1.278       .  A
Mg349       O356   2.136       .  S
Mg349       O357   2.135       .  S
Mg349       O350   2.241       .  S
Mg349       O351   2.291       .  S
Mg349       O378   2.281       .  S
O351        C355   1.272       .  A
O352       Mg359   2.427       .  S
O353        C372   1.269       .  A
O354        C374   1.283       .  A
O354       Mg370   2.380       .  S
O356       Mg370   2.177       .  S
O356        C367   1.236       .  S
O357       Mg376   2.139       .  S
O358       Mg370   2.305       .  S
Mg359       O375   2.350       .  S
O360       Mg376   2.219       .  S
H361        C366   1.081       .  S
O362       Mg370   2.162       .  S
O362        C365   1.241       .  S
H363        C365   1.081       .  S
H364        C367   1.081       .  S
O369       Mg376   2.285       .  S
C372        O377   1.282       .  A
O373        C374   1.278       .  A
C374        C493   1.477       .  S
C379        N380   1.377       .  A
C379        N384   1.343       .  A
C379        C488   1.490       .  S
N380        C381   1.384   1_655  A
C381        N382   1.369       .  A
N382        C383   1.357   1_455  A
C383        N384   1.342       .  A
C383        C846   1.475       .  S
C385        N386   1.368       .  A
C385        N390   1.339       .  A
C385        C407   1.473       .  S
N386        C387   1.377   1_655  A
C387        N388   1.368       .  A
N388        C389   1.357   1_455  A
C389        N390   1.345       .  A
C389        C832   1.472       .  S
O391       Mg393   2.119       .  S
O391       Mg399   2.163       .  S
O391        C426   1.237       .  S
C392        O405   1.236       .  S
C392        O429   1.268       .  A
C392        H431   1.081       .  S
Mg393       O422   2.138       .  S
Mg393       O437   2.262       .  S
Mg393       O433   2.228       .  S
Mg393       O404   2.301       .  S
O394       Mg436   2.151       .  S
O394       Mg419   2.174       .  S
O394        C415   1.241       .  S
O395        C426   1.269       .  A
O395       Mg419   2.288       .  S
C396        C439   1.485       .  S
C396        O398   1.283       .  A
C396        O410   1.279       .  A
O397        C425   1.278       .  A
O397       Mg399   2.323       .  S
O398       Mg430   2.334       .  S
Mg399       O405   2.110       .  S
Mg399       O413   2.326       .  S
Mg399       O401   2.343       .  S
C400        O438   1.275       .  A
C400        O406   1.279       .  A
O401        C408   1.284       .  A
H402        C415   1.081       .  S
C403        O417   1.235       .  S
C403        O418   1.269       .  A
C403        H428   1.081       .  S
O404        C427   1.273       .  A
O405       Mg419   2.151       .  S
O406       Mg436   2.299       .  S
C407        O420   1.277       .  A
C407        O412   1.279       .  A
C408        O435   1.278       .  A
Mg409       O416   2.155       .  S
Mg409       O417   2.168       .  S
Mg409       O410   2.314       .  S
Mg409       O411   2.311       .  S
Mg409       O438   2.336       .  S
O411        C415   1.275       .  A
O412       Mg419   2.361       .  S
O413        C432   1.273       .  A
O414        C434   1.287       .  A
O414       Mg430   2.425       .  S
O416       Mg430   2.181       .  S
O416        C427   1.239       .  S
O417       Mg436   2.143       .  S
O418       Mg430   2.300       .  S
Mg419       O435   2.297       .  S
O420       Mg436   2.271       .  S
H421        C426   1.081       .  S
O422       Mg430   2.176       .  S
O422        C425   1.243       .  S
H423        C425   1.081       .  S
H424        C427   1.081       .  S
O429       Mg436   2.277       .  S
C432        C499   1.480       .  S
C432        O437   1.272       .  A
O433        C434   1.268       .  A
C439        N440   1.369       .  A
C439        N444   1.379       .  A
N440        C441   1.357       .  A
C441        N442   1.341   1_545  A
C441        C821   1.480       .  S
N442        C443   1.345       .  A
C443        N444   1.370   1_565  A
C443        C462   1.480       .  S
O445       Mg447   2.160       .  S
O445       Mg453   2.151       .  S
O445        C480   1.244       .  S
C446        O459   1.235       .  S
C446        O483   1.270       .  A
C446        H485   1.081       .  S
Mg447       O476   2.168       .  S
Mg447       O491   2.402       .  S
Mg447       O487   2.344       .  S
Mg447       O458   2.307       .  S
O448       Mg490   2.173       .  S
O448       Mg473   2.150       .  S
O448        C469   1.235       .  S
O449        C480   1.277       .  A
O449       Mg473   2.311       .  S
C450        O452   1.269       .  A
C450        O464   1.270       .  A
O451        C479   1.269       .  A
O451       Mg453   2.282       .  S
O452       Mg484   2.335       .  S
Mg453       O459   2.154       .  S
Mg453       O467   2.295       .  S
Mg453       O455   2.255       .  S
C454        C505   1.504       .  S
C454        O492   1.271       .  A
C454        O460   1.294       .  A
O455        C462   1.273       .  A
H456        C469   1.081       .  S
C457        O471   1.243       .  S
C457        O472   1.279       .  A
C457        H482   1.081       .  S
O458        C481   1.272       .  A
O459       Mg473   2.172       .  S
O460       Mg490   2.464       .  S
C461        O474   1.290       .  A
C461        O466   1.283       .  A
C462        O489   1.274       .  A
Mg463       O470   2.152       .  S
Mg463       O471   2.154       .  S
Mg463       O464   2.237       .  S
Mg463       O465   2.287       .  S
Mg463       O492   2.258       .  S
O465        C469   1.268       .  A
O466       Mg473   2.338       .  S
O467        C486   1.277       .  A
O468        C488   1.282       .  A
O468       Mg484   2.320       .  S
O470       Mg484   2.178       .  S
O470        C481   1.237       .  S
O471       Mg490   2.192       .  S
O472       Mg484   2.329       .  S
Mg473       O489   2.341       .  S
O474       Mg490   2.373       .  S
H475        C480   1.081       .  S
O476       Mg484   2.113       .  S
O476        C479   1.237       .  S
H477        C479   1.081       .  S
H478        C481   1.081       .  S
O483       Mg490   2.298       .  S
C486        O491   1.286       .  A
O487        C488   1.280       .  A
C493        N494   1.379       .  A
C493        N498   1.351       .  A
N494        C495   1.378   1_556  A
C495        N496   1.356       .  A
N496        C497   1.348   1_554  A
C497        N498   1.345       .  A
C497        C804   1.459   1_556  S
C499        N500   1.358       .  A
C499        N504   1.380       .  A
N500        C501   1.345       .  A
C501        N502   1.341   1_556  A
C501        C790   1.470   1_556  S
N502        C503   1.348       .  A
C503        N504   1.376   1_554  A
C505        N506   1.379       .  A
C505        N510   1.373       .  A
N506        C507   1.376   1_556  A
C507        N508   1.346       .  A
N508        C509   1.343   1_554  A
C509        N510   1.363       .  A
C509        C776   1.498       .  S
C511        N512   1.348       .  A
C511        N516   1.377       .  A
N512        C513   1.339       .  A
C513        N514   1.350       .  A
C513        C762   1.479       .  S
N514        C515   1.364       .  A
C515        N516   1.382       .  A
C517        N518   1.351       .  A
C517        N522   1.376       .  A
N518        C519   1.342       .  A
C519        N520   1.347       .  A
C519        C748   1.455       .  S
N520        C521   1.353       .  A
C521        N522   1.376       .  A
C523        N524   1.362       .  A
C523        N528   1.373       .  A
N524        C525   1.347       .  A
C525        N526   1.345       .  A
C525        C737   1.471       .  S
N526        C527   1.350       .  A
C527        N528   1.369       .  A
N529        C534   1.353       .  A
N529        C533   1.352       .  A
N529        H561   1.042   1_565  S
N530        C537   1.346       .  A
N530        C538   1.345   1_565  A
N531        C536   1.343   1_655  A
N531        C535   1.339       .  A
N531        H562   1.045       .  S
N532        C539   1.341       .  A
N532        C540   1.346       .  A
C533        C541   1.388       .  A
C533        C549   1.420   1_455  A
C534        C550   1.403   1_565  A
C534        C542   1.378       .  A
C535        C543   1.389       .  A
C535        C552   1.401       .  A
C536        C551   1.399       .  A
C536        C544   1.384   1_455  A
C537        C549   1.396       .  A
C537        C545   1.378       .  A
C538        C552   1.417       .  A
C538        C546   1.393   1_545  A
C539        C547   1.386       .  A
C539        C550   1.402       .  A
C540        C548   1.381       .  A
C540        C551   1.406       .  A
C541        H553   1.076       .  S
C541        C542   1.374       .  A
C542        H554   1.080       .  S
C543        H555   1.082       .  S
C543        C544   1.378       .  A
C544        H556   1.082       .  S
C545        H557   1.083       .  S
C545        C546   1.374       .  A
C546        H558   1.078       .  S
C547        H559   1.082       .  S
C547        C548   1.387       .  A
C548        H560   1.081       .  S
C549       C1059   1.493       .  S
C550        C734   1.484       .  S
C551       C1042   1.485       .  S
C552       C1028   1.466       .  S
N563        C568   1.347   1_545  A
N563        C567   1.348       .  A
N563        H595   1.036       .  S
N564        C571   1.349       .  A
N564        C572   1.350       .  A
N565        C570   1.349       .  A
N565        C569   1.342       .  A
N565        H596   1.042       .  S
N566        C573   1.344   1_545  A
N566        C574   1.347       .  A
C567        C575   1.375   1_545  A
C567        C583   1.392       .  A
C568        C584   1.422   1_554  A
C568        C576   1.396       .  A
C569        C577   1.388       .  A
C569        C586   1.404   1_556  A
C570        C585   1.409       .  A
C570        C578   1.385       .  A
C571        C583   1.412       .  A
C571        C579   1.381       .  A
C572        C586   1.399       .  A
C572        C580   1.378       .  A
C573        C581   1.381       .  A
C573        C584   1.398       .  A
C574        C582   1.387       .  A
C574        C585   1.414       .  A
C575        H587   1.083       .  S
C575        C576   1.370       .  A
C576        H588   1.072       .  S
C577        H589   1.082       .  S
C577        C578   1.385       .  A
C578        H590   1.082       .  S
C579        H591   1.071       .  S
C579        C580   1.369       .  A
C580        H592   1.081       .  S
C581        H593   1.081       .  S
C581        C582   1.362   1_565  A
C582        H594   1.074       .  S
C583        C765   1.486       .  S
C584       C1014   1.470       .  S
C585        C947   1.489       .  S
C586        C972   1.479       .  S
N597        C602   1.354   1_455  A
N597        C601   1.350       .  A
N597        H629   1.042       .  S
N598        C605   1.347       .  A
N598        C606   1.349       .  A
N599        C604   1.349       .  A
N599        C603   1.350       .  A
N599        H630   1.040       .  S
N600        C607   1.348       .  A
N600        C608   1.347       .  A
C601        C609   1.385       .  A
C601        C617   1.411       .  A
C602        C618   1.418       .  A
C602        C610   1.387   1_655  A
C603        C611   1.391       .  A
C603        C620   1.414       .  A
C604        C619   1.400       .  A
C604        C612   1.382       .  A
C605        C617   1.423   1_554  A
C605        C613   1.396       .  A
C606        C620   1.397   1_455  A
C606        C614   1.374       .  A
C607        C615   1.381       .  A
C607        C618   1.405       .  A
C608        C616   1.391       .  A
C608        C619   1.409   1_556  A
C609        H621   1.082       .  S
C609        C610   1.362       .  A
C610        H622   1.075       .  S
C611        H623   1.078       .  S
C611        C612   1.368       .  A
C612        H624   1.083       .  S
C613        H625   1.077       .  S
C613        C614   1.372       .  A
C614        H626   1.083       .  S
C615        H627   1.082       .  S
C615        C616   1.375       .  A
C616        H628   1.080       .  S
C617        C751   1.483       .  S
C618        C958   1.492       .  S
C619        C989   1.482       .  S
C620       C1003   1.492       .  S
N631        C636   1.354       .  A
N631        C635   1.347       .  A
N631        H663   1.043       .  S
N632        C639   1.345       .  A
N632        C640   1.343       .  A
N633        C638   1.345       .  A
N633        C637   1.342       .  A
N633        H664   1.037       .  S
N634        C641   1.346       .  A
N634        C642   1.346       .  A
C635        C643   1.383       .  A
C635        C651   1.410       .  A
C636        C652   1.412       .  A
C636        C644   1.383       .  A
C637        C645   1.375       .  A
C637        C654   1.389       .  A
C638        C653   1.416       .  A
C638        C646   1.395       .  A
C639        C651   1.390       .  A
C639        C647   1.382       .  A
C640        C654   1.404       .  A
C640        C648   1.389       .  A
C641        C649   1.384   1_554  A
C641        C652   1.406       .  A
C642        C650   1.385   1_554  A
C642        C653   1.407       .  A
C643        H655   1.081       .  S
C643        C644   1.386       .  A
C644        H656   1.081       .  S
C645        H657   1.082       .  S
C645        C646   1.376       .  A
C646        H658   1.078       .  S
C647        H659   1.083       .  S
C647        C648   1.368       .  A
C648        H660   1.079       .  S
C649        H661   1.077       .  S
C649        C650   1.364       .  A
C650        H662   1.082       .  S
C651        C793   1.474       .  S
C652        C779   1.496   1_554  S
C653        C807   1.482       .  S
C654        C874   1.484       .  S
N665        C670   1.349       .  A
N665        C669   1.347       .  A
N665        H697   1.037       .  S
N666        C673   1.348       .  A
N666        C674   1.346       .  A
N667        C672   1.352       .  A
N667        C671   1.355       .  A
N667        H698   1.029       .  S
N668        C675   1.349       .  A
N668        C676   1.350       .  A
C669        C677   1.390       .  A
C669        C685   1.413       .  A
C670        C686   1.398       .  A
C670        C678   1.379       .  A
C671        C679   1.381       .  A
C671        C688   1.412       .  A
C672        C687   1.426       .  A
C672        C680   1.389       .  A
C673        C685   1.398       .  A
C673        C681   1.377       .  A
C674        C688   1.420       .  A
C674        C682   1.393       .  A
C675        C683   1.386       .  A
C675        C686   1.416       .  A
C676        C684   1.383       .  A
C676        C687   1.408       .  A
C677        H689   1.079       .  S
C677        C678   1.376       .  A
C678        H690   1.083       .  S
C679        H691   1.083       .  S
C679        C680   1.371       .  A
C680        H692   1.077       .  S
C681        H693   1.083       .  S
C681        C682   1.366       .  A
C682        H694   1.077       .  S
C683        H695   1.078       .  S
C683        C684   1.370       .  A
C684        H696   1.083       .  S
C685        C835   1.484       .  S
C686        C849   1.486       .  S
C687        C891   1.491       .  S
C688        C933   1.489       .  S
N699        C704   1.352       .  A
N699        C703   1.356       .  A
N699        H731   1.040       .  S
N700        C707   1.341       .  A
N700        C708   1.350       .  A
N701        C706   1.350       .  A
N701        C705   1.354       .  A
N701        H732   1.042       .  S
N702        C709   1.344       .  A
N702        C710   1.349       .  A
C703        C711   1.381       .  A
C703        C719   1.407       .  A
C704        C720   1.417       .  A
C704        C712   1.387       .  A
C705        C713   1.384       .  A
C705        C722   1.405       .  A
C706        C721   1.407       .  A
C706        C714   1.388       .  A
C707        C719   1.417       .  A
C707        C715   1.393       .  A
C708        C722   1.393       .  A
C708        C716   1.377       .  A
C709        C717   1.382       .  A
C709        C720   1.401       .  A
C710        C718   1.383       .  A
C710        C721   1.414       .  A
C711        H723   1.083       .  S
C711        C712   1.372       .  A
C712        H724   1.079       .  S
C713        H725   1.083       .  S
C713        C714   1.369       .  A
C714        H726   1.083       .  S
C715        H727   1.073       .  S
C715        C716   1.367       .  A
C716        H728   1.083       .  S
C717        H729   1.082       .  S
C717        C718   1.376       .  A
C718        H730   1.077       .  S
C719        C818   1.484       .  S
C720        C905   1.485       .  S
C721        C916   1.495       .  S
C722        C860   1.473       .  S
C733        H740   1.084       .  S
C733        C734   1.409       .  A
C733        C738   1.403       .  A
C734        C735   1.397       .  A
C735        C736   1.399       .  A
C735        N742   1.427       .  S
C736        H741   1.084       .  S
C736        C737   1.406       .  A
C737        C738   1.407       .  A
C738        N739   1.433       .  S
N739        H743   1.046       .  S
N739        H744   1.045       .  S
N742        H745   1.045       .  S
N742        H746   1.045       .  S
C747        H754   1.084       .  S
C747        C748   1.406       .  A
C747        C752   1.398   1_554  A
C748        C749   1.398       .  A
C749        C750   1.386   1_554  A
C749        N756   1.434       .  S
C750        H755   1.083       .  S
C750        C751   1.408       .  A
C751        C752   1.407       .  A
C752        N753   1.433       .  S
N753        H757   1.045       .  S
N753        H758   1.045       .  S
N756        H759   1.045       .  S
N756        H760   1.045       .  S
C761        H768   1.084       .  S
C761        C762   1.399       .  A
C761        C766   1.396       .  A
C762        C763   1.419       .  A
C763        C764   1.403       .  A
C763        N770   1.435       .  S
C764        H769   1.083       .  S
C764        C765   1.401       .  A
C765        C766   1.419       .  A
C766        N767   1.433       .  S
N767        H771   1.045       .  S
N767        H772   1.045   1_545  S
N770        H773   1.046       .  S
N770        H774   1.045       .  S
C775        H782   1.083       .  S
C775        C776   1.407       .  A
C775        C780   1.415       .  A
C776        C777   1.420   1_556  A
C777        C778   1.402       .  A
C777        N784   1.433       .  S
C778        H783   1.083       .  S
C778        C779   1.400   1_554  A
C779        C780   1.412       .  A
C780        N781   1.431       .  S
N781        H785   1.045       .  S
N781        H786   1.045       .  S
N784        H787   1.046       .  S
N784        H788   1.046       .  S
C789        H796   1.084       .  S
C789        C790   1.411       .  A
C789        C794   1.398       .  A
C790        C791   1.412   1_554  A
C791        C792   1.397   1_556  A
C791        N798   1.433       .  S
C792        H797   1.084   1_554  S
C792        C793   1.402       .  A
C793        C794   1.393       .  A
C794        N795   1.427       .  S
N795        H799   1.042       .  S
N795        H800   1.045       .  S
N798        H801   1.046       .  S
N798        H802   1.044       .  S
C803        H810   1.076       .  S
C803        C804   1.405       .  A
C803        C808   1.397       .  A
C804        C805   1.399   1_554  A
C805        C806   1.388       .  A
C805        N812   1.434       .  S
C806        H811   1.082       .  S
C806        C807   1.408   1_556  A
C807        C808   1.406       .  A
C808        N809   1.437       .  S
N809        H813   1.045       .  S
N809        H814   1.045       .  S
N812        H815   1.044       .  S
N812        H816   1.045       .  S
C817        H824   1.084       .  S
C817        C818   1.407   1_545  A
C817        C822   1.404       .  A
C818        C819   1.403       .  A
C819        C820   1.398       .  A
C819        N826   1.432       .  S
C820        H825   1.083       .  S
C820        C821   1.413   1_565  A
C821        C822   1.406       .  A
C822        N823   1.432       .  S
N823        H827   1.046       .  S
N823        H828   1.045       .  S
N826        H829   1.045       .  S
N826        H830   1.045       .  S
C831        H838   1.083   1_655  S
C831        C832   1.397       .  A
C831        C836   1.405       .  A
C832        C833   1.421       .  A
C833        C834   1.395       .  A
C833        N840   1.433       .  S
C834        H839   1.084       .  S
C834        C835   1.391       .  A
C835        C836   1.413       .  A
C836        N837   1.431       .  S
N837        H841   1.045       .  S
N837        H842   1.046       .  S
N840        H843   1.045       .  S
N840        H844   1.043       .  S
C845        H852   1.084       .  S
C845        C846   1.412       .  A
C845        C850   1.405       .  A
C846        C847   1.409       .  A
C847        C848   1.399       .  A
C847        N854   1.432   1_655  S
C848        H853   1.084       .  S
C848        C849   1.407       .  A
C849        C850   1.402       .  A
C850        N851   1.431       .  S
N851        H855   1.045       .  S
N851        H856   1.045       .  S
N854        H857   1.045       .  S
N854        H858   1.045       .  S
C859        H866   1.084       .  S
C859        C860   1.407       .  A
C859        C864   1.406   1_565  A
C860        C861   1.394       .  A
C861        C862   1.395       .  A
C861        N868   1.432       .  S
C862        H867   1.076       .  S
C862        C863   1.407   1_565  A
C863        C864   1.406       .  A
C864        N865   1.436       .  S
N865        H869   1.046       .  S
N865        H870   1.045       .  S
N868        H871   1.045       .  S
N868        H872   1.045       .  S
C873        H880   1.085       .  S
C873        C874   1.387       .  A
C873        C878   1.399       .  A
C874        C875   1.420       .  A
C875        C876   1.402       .  A
C875        N882   1.430       .  S
C876        H881   1.084   1_554  S
C876        C877   1.395       .  A
C877        C878   1.417       .  A
C878        N879   1.426       .  S
N879        H883   1.042       .  S
N879        H884   1.046       .  S
N882        H885   1.043   1_554  S
N882        H886   1.046       .  S
C887        H894   1.084       .  S
C887        C888   1.412       .  A
C887        C892   1.404       .  A
C888        C889   1.404       .  A
C889        C890   1.401       .  A
C889        N896   1.432   1_655  S
C890        H895   1.085       .  S
C890        C891   1.407       .  A
C891        C892   1.409       .  A
C892        N893   1.436       .  S
N893        H897   1.045       .  S
N893        H898   1.045       .  S
N896        H899   1.046       .  S
N896        H900   1.045       .  S
C901        H908   1.084       .  S
C901        C902   1.397       .  A
C901        C906   1.397       .  A
C902        C903   1.417   1_545  A
C903        C904   1.402       .  A
C903        N910   1.432       .  S
C904        H909   1.084       .  S
C904        C905   1.396       .  A
C905        C906   1.419   1_565  A
C906        N907   1.430       .  S
N907        H911   1.044       .  S
N907        H912   1.045       .  S
N910        H913   1.045       .  S
N910        H914   1.046       .  S
C915        H922   1.084       .  S
C915        C916   1.400       .  A
C915        C920   1.405       .  A
C916        C917   1.414       .  A
C917        C918   1.408   1_565  A
C917        N924   1.429       .  S
C918        H923   1.084       .  S
C918        C919   1.401       .  A
C919        C920   1.424   1_545  A
C920        N921   1.437       .  S
N921        H925   1.045       .  S
N921        H926   1.044       .  S
N924        H927   1.045   1_565  S
N924        H928   1.041   1_565  S
C929        H936   1.082       .  S
C929        C930   1.409       .  A
C929        C934   1.402       .  A
C930        C931   1.404       .  A
C931        C932   1.404       .  A
C931        N938   1.432   1_655  S
C932        H937   1.084       .  S
C932        C933   1.408       .  A
C933        C934   1.405       .  A
C934        N935   1.431       .  S
N935        H939   1.045       .  S
N935        H940   1.045       .  S
N938        H941   1.044       .  S
N938        H942   1.045       .  S
C943        H950   1.083       .  S
C943        C944   1.407   1_545  A
C943        C948   1.414       .  A
C944        C945   1.425   1_565  A
C945        C946   1.398       .  A
C945        N952   1.434   1_545  S
C946        H951   1.084       .  S
C946        C947   1.396       .  A
C947        C948   1.408       .  A
C948        N949   1.431       .  S
N949        H953   1.045       .  S
N949        H954   1.045       .  S
N952        H955   1.045       .  S
N952        H956   1.046       .  S
C957        H964   1.084       .  S
C957        C958   1.391       .  A
C957        C962   1.394   1_655  A
C958        C959   1.414       .  A
C959        C960   1.412       .  A
C959        N966   1.434       .  S
C960        H965   1.083   1_655  S
C960        C961   1.408   1_655  A
C961        C962   1.424       .  A
C962        N963   1.430       .  S
N963        H967   1.046       .  S
N963        H968   1.043       .  S
N966        H969   1.046       .  S
N966        H970   1.045       .  S
C971        H978   1.084       .  S
C971        C972   1.394       .  A
C971        C976   1.396   1_554  A
C972        C973   1.415       .  A
C973        C974   1.402   1_554  A
C973        N980   1.437       .  S
C974        H979   1.084       .  S
C974        C975   1.398       .  A
C975        C976   1.422       .  A
C976        N977   1.437       .  S
N977        H981   1.045       .  S
N977        H982   1.044       .  S
N980        H983   1.045       .  S
N980        H984   1.046       .  S
C985        H992   1.080       .  S
C985        C986   1.411       .  A
C985        C990   1.390       .  A
C986        C987   1.402       .  A
C987        C988   1.405   1_556  A
C987        N994   1.431       .  S
C988        H993   1.084       .  S
C988        C989   1.413       .  A
C989        C990   1.395   1_554  A
C990        N991   1.434       .  S
N991        H995   1.044       .  S
N991        H996   1.045   1_556  S
N994        H997   1.045       .  S
N994        H998   1.046       .  S
C999       H1006   1.084       .  S
C999       C1000   1.397       .  A
C999       C1004   1.405       .  A
C1000      C1001   1.415       .  A
C1001      C1002   1.405       .  A
C1001      N1008   1.432       .  S
C1002      H1007   1.084       .  S
C1002      C1003   1.399       .  A
C1003      C1004   1.418       .  A
C1004      N1005   1.436   1_655  S
N1005      H1009   1.046   1_455  S
N1005      H1010   1.044       .  S
N1008      H1011   1.046       .  S
N1008      H1012   1.045       .  S
C1013      H1020   1.084       .  S
C1013      C1014   1.397       .  A
C1013      C1018   1.397   1_556  A
C1014      C1015   1.407   1_556  A
C1015      C1016   1.391       .  A
C1015      N1022   1.433       .  S
C1016      H1021   1.084       .  S
C1016      C1017   1.403       .  A
C1017      C1018   1.416       .  A
C1018      N1019   1.431       .  S
N1019      H1023   1.044       .  S
N1019      H1024   1.046       .  S
N1022      H1025   1.045   1_554  S
N1022      H1026   1.046       .  S
C1027      H1034   1.084       .  S
C1027      C1028   1.400   1_565  A
C1027      C1032   1.392       .  A
C1028      C1029   1.399       .  A
C1029      C1030   1.395   1_545  A
C1029      N1036   1.433       .  S
C1030      H1035   1.070       .  S
C1030      C1031   1.401       .  A
C1031      C1032   1.412       .  A
C1032      N1033   1.439       .  S
N1033      H1037   1.046       .  S
N1033      H1038   1.045       .  S
N1036      H1039   1.045       .  S
N1036      H1040   1.046       .  S
C1041      H1048   1.084   1_655  S
C1041      C1042   1.401   1_655  A
C1041      C1046   1.399       .  A
C1042      C1043   1.415       .  A
C1043      C1044   1.408   1_455  A
C1043      N1050   1.434       .  S
C1044      H1049   1.083       .  S
C1044      C1045   1.407       .  A
C1045      C1046   1.420       .  A
C1046      N1047   1.434       .  S
N1047      H1051   1.045       .  S
N1047      H1052   1.046       .  S
N1050      H1053   1.045       .  S
N1050      H1054   1.046       .  S
C1055      H1062   1.084       .  S
C1055      C1056   1.415       .  A
C1055      C1060   1.405   1_455  A
C1056      C1057   1.401       .  A
C1057      C1058   1.402   1_455  A
C1057      N1064   1.431       .  S
C1058      H1063   1.084       .  S
C1058      C1059   1.411       .  A
C1059      C1060   1.410       .  A
C1060      N1061   1.437       .  S
N1061      H1065   1.045       .  S
N1061      H1066   1.045       .  S
N1064      H1067   1.046       .  S
N1064      H1068   1.046   1_455  S
