geometry optimzed in LAMMPS
_audit_creation_date              2020-12-01 
_audit_creation_method            'lammps2cif' 
_symmetry_space_group_name_H-M    'P1' 
_symmetry_Int_Tables_number       1 
_symmetry_cell_setting            triclinic 
loop_ 
_symmetry_equiv_pos_as_xyz 
  x,y,z 
_cell_length_a                    57.49509541 
_cell_length_b                    57.30063736366731 
_cell_length_c                    57.320959336268324 
_cell_angle_alpha                 90.00960764498419 
_cell_angle_beta                  90.04340100067901 
_cell_angle_gamma                 89.96249880687915 
loop_ 
_atom_site_label 
_atom_site_type_symbol 
_atom_site_fract_x 
_atom_site_fract_y 
_atom_site_fract_z 
_atom_site_charge 
N1          N  0.49873839  0.79622924  0.63736468    -0.27400
N2          N  0.50323367  0.81850343  0.63368902    -0.35300
C3          C  0.50404811  0.82268648  0.61077477     0.00900
C4          C  0.49997222  0.80208252  0.59906995     0.06900
C5          C  0.49672281  0.78544162  0.61643798    -0.06200
H6          H  0.50695659  0.83972619  0.60317837     0.07600
H7          H  0.49258358  0.76718146  0.61406350     0.08800
Cu8        Cu  0.50636418  0.84314778  0.65935438     0.44200
Cu9        Cu  0.49463193  0.78423201  0.67155776     0.42000
Cu10       Cu  0.49375652  0.83207815  0.71790222     0.43900
N11         N  0.50509053  0.86912158  0.68383356    -0.34800
N12         N  0.49996328  0.86574446  0.70599617    -0.29100
C13         C  0.49884338  0.88669524  0.71678413    -0.05200
C14         C  0.50335812  0.90381581  0.70025959     0.07000
C15         C  0.50726341  0.89196165  0.67970521     0.00800
H16         H  0.49422538  0.88928172  0.73489310     0.08500
H17         H  0.51061531  0.89943292  0.66269755     0.07600
N18         N  0.49086241  0.79632083  0.72365871    -0.36300
N19         N  0.49154817  0.77957730  0.70767447    -0.28400
C20         C  0.49069976  0.75878363  0.71856570    -0.03700
C21         C  0.48910362  0.76254880  0.74236721     0.04900
C22         C  0.48946338  0.78652636  0.74492522     0.03000
H23         H  0.49154806  0.74207982  0.70980302     0.08100
H24         H  0.48995552  0.79626296  0.76106943     0.07000
N25         N  0.49424754  0.58651496  0.84872742    -0.27400
N26         N  0.49545818  0.58265368  0.87136490    -0.35300
C27         C  0.49630778  0.55972111  0.87539875     0.00900
C28         C  0.49559667  0.54819397  0.85429674     0.06900
C29         C  0.49428864  0.56570132  0.83753111    -0.06200
H30         H  0.49716021  0.55198432  0.89260209     0.07600
H31         H  0.49323247  0.56350020  0.81881714     0.08800
Cu32       Cu  0.49550687  0.60833698  0.89614166     0.44200
Cu33       Cu  0.49251284  0.62090720  0.83698426     0.42000
Cu34       Cu  0.49164686  0.66835816  0.88436084     0.43900
N35         N  0.49576549  0.63300696  0.92191597    -0.34800
N36         N  0.49421272  0.65571788  0.91847970    -0.29100
C37         C  0.49486775  0.66651990  0.93949574    -0.05200
C38         C  0.49695522  0.64943998  0.95663969     0.07000
C39         C  0.49744354  0.62857457  0.94471851     0.00800
H40         H  0.49379098  0.68519026  0.94208351     0.08500
H41         H  0.49877315  0.61124066  0.95209923     0.07600
N42         N  0.49154882  0.67349425  0.84816966    -0.36300
N43         N  0.49206368  0.65701058  0.83188952    -0.28400
C44         C  0.49242645  0.66720992  0.81076692    -0.03700
C45         C  0.49236614  0.69114870  0.81372251     0.04900
C46         C  0.49149106  0.69449113  0.83761220     0.03000
H47         H  0.49213801  0.65773146  0.79446493     0.08100
H48         H  0.49108853  0.71103958  0.84669617     0.07000
N49         N  0.81915981  0.58667610  0.53502589    -0.27400
N50         N  0.84172899  0.58271301  0.53396349    -0.35300
C51         C  0.84569275  0.55975865  0.53345038     0.00900
C52         C  0.82462242  0.54832964  0.53400766     0.06900
C53         C  0.80794644  0.56590275  0.53502223    -0.06200
H54         H  0.86278909  0.55196326  0.53208487     0.07600
H55         H  0.78925452  0.56378439  0.53534032     0.08800
Cu56       Cu  0.86655078  0.60814117  0.53153667     0.44200
Cu57       Cu  0.80733000  0.62109256  0.53564179     0.42000
Cu58       Cu  0.85471676  0.66797275  0.53018892     0.43900
N59         N  0.89239872  0.63253030  0.52911548    -0.34800
N60         N  0.88891061  0.65528205  0.52880575    -0.29100
C61         C  0.90989234  0.66603166  0.52815015    -0.05200
C62         C  0.92708564  0.64888832  0.52801997     0.07000
C63         C  0.91519682  0.62801646  0.52858493     0.00800
H64         H  0.91243643  0.68473448  0.52811022     0.08500
H65         H  0.92260070  0.61065135  0.52903759     0.07600
N66         N  0.81870837  0.67354393  0.53314401    -0.36300
N67         N  0.80247018  0.65725616  0.53542367    -0.28400
C68         C  0.78157426  0.66767916  0.53703316    -0.03700
C69         C  0.78448568  0.69165407  0.53570275     0.04900
C70         C  0.80832230  0.69463220  0.53310209     0.03000
H71         H  0.76535577  0.65832973  0.53898684     0.08100
H72         H  0.81757008  0.71087165  0.53072077     0.07000
N73         N  0.67557195  0.86558675  0.52449475    -0.27400
N74         N  0.65300727  0.86969941  0.52470431    -0.35300
C75         C  0.64918631  0.89269342  0.52461401     0.00900
C76         C  0.67035101  0.90399570  0.52431684     0.06900
C77         C  0.68692078  0.88628887  0.52422419    -0.06200
H78         H  0.63209657  0.90062247  0.52479505     0.07600
H79         H  0.70562858  0.88827950  0.52414232     0.08800
Cu80       Cu  0.62805593  0.84426267  0.52534881     0.44200
Cu81       Cu  0.68718740  0.83108437  0.52555626     0.42000
Cu82       Cu  0.64010292  0.78438821  0.53179994     0.43900
N83         N  0.60252092  0.81943103  0.52596224    -0.34800
N84         N  0.60615152  0.79682938  0.52844045    -0.29100
C85         C  0.58532126  0.78584294  0.52852137    -0.05200
C86         C  0.56806853  0.80267064  0.52600181     0.07000
C87         C  0.57971730  0.82360990  0.52444069     0.00800
H88         H  0.58292509  0.76724066  0.53064466     0.08500
H89         H  0.57215208  0.84081983  0.52266766     0.07600
N90         N  0.67609006  0.77906396  0.53255590    -0.36300
N91         N  0.69237668  0.79519576  0.52969113    -0.28400
C92         C  0.71335136  0.78479263  0.53014057    -0.03700
C93         C  0.71035678  0.76101289  0.53335362     0.04900
C94         C  0.68644829  0.75814563  0.53506975     0.03000
H95         H  0.72964752  0.79393727  0.52788417     0.08100
H96         H  0.67706405  0.74207220  0.53798510     0.07000
N97         N  0.88456673  0.47290351  0.70671074    -0.27400
N98         N  0.88842158  0.46855235  0.68445875    -0.35300
C99         C  0.91130204  0.46828968  0.68040445     0.00900
C100        C  0.92274757  0.47256240  0.70111477     0.06900
C101        C  0.90529007  0.47533566  0.71765740    -0.06200
H102        H  0.91904640  0.46547272  0.66343161     0.07600
H103        H  0.90744907  0.47929938  0.73598320     0.08800
Cu104      Cu  0.86272369  0.46476877  0.66000182     0.44200
Cu105      Cu  0.85038066  0.47593783  0.71835404     0.42000
Cu106      Cu  0.80324791  0.47500901  0.67146337     0.43900
N107        N  0.83816652  0.46636795  0.63417368    -0.34800
N108        N  0.81588515  0.47076690  0.63754459    -0.29100
C109        C  0.80542700  0.47285384  0.61648334    -0.05200
C110        C  0.82225887  0.46971959  0.59935362     0.07000
C111        C  0.84263954  0.46558584  0.61131586     0.00800
H112        H  0.78731140  0.47724999  0.61386791     0.08500
H113        H  0.85980070  0.46316628  0.60395128     0.07600
N114        N  0.79799007  0.47692107  0.70757098    -0.36300
N115        N  0.81450414  0.47724678  0.72375495    -0.28400
C116        C  0.80448917  0.47756589  0.74493614    -0.03700
C117        C  0.78059622  0.47768790  0.74215832     0.04900
C118        C  0.77712414  0.47701127  0.71825141     0.03000
H119        H  0.81407198  0.47661292  0.76113067     0.08100
H120        H  0.76058553  0.47631107  0.70926090     0.07000
N121        N  0.67368303  0.47339959  0.91770344    -0.27400
N122        N  0.65108266  0.47213979  0.92144363    -0.35300
C123        C  0.64698544  0.47147808  0.94438769     0.00900
C124        C  0.66799118  0.47237070  0.95599369     0.06900
C125        C  0.68474249  0.47358877  0.93855570    -0.06200
H126        H  0.62981448  0.47076953  0.95207775     0.07600
H127        H  0.70338169  0.47480055  0.94083272     0.08800
Cu128      Cu  0.62634867  0.47226139  0.89562678     0.44200
Cu129      Cu  0.68601694  0.47478414  0.88352501     0.42000
Cu130      Cu  0.63891975  0.47318870  0.83601980     0.43900
N131        N  0.60075106  0.47361176  0.87071569    -0.34800
N132        N  0.60454568  0.47402396  0.84802866    -0.29100
C133        C  0.58372345  0.47484255  0.83693208    -0.05200
C134        C  0.56627929  0.47492655  0.85379190     0.07000
C135        C  0.57788915  0.47416208  0.87484062     0.00800
H136        H  0.58146701  0.47526642  0.81819926     0.08500
H137        H  0.57024375  0.47394259  0.89208625     0.07600
N138        N  0.67504784  0.47237349  0.83103943    -0.36300
N139        N  0.69130653  0.47364388  0.84746464    -0.28400
C140        C  0.71235177  0.47370057  0.83719977    -0.03700
C141        C  0.70934716  0.47204537  0.81332539     0.04900
C142        C  0.68551861  0.47126727  0.81006159     0.03000
H143        H  0.72870326  0.47483569  0.84648646     0.08100
H144        H  0.67638413  0.47067688  0.79356619     0.07000
N145        N  0.82036535  0.86652100  0.02088595    -0.27400
N146        N  0.84276635  0.86996581  0.01732265    -0.35300
C147        C  0.84713441  0.89287677  0.01647541     0.00900
C148        C  0.82650790  0.90477506  0.01960979     0.06900
C149        C  0.80970147  0.88753979  0.02233272    -0.06200
H150        H  0.86426885  0.90034058  0.01419444     0.07600
H151        H  0.79133945  0.89007042  0.02557540     0.08800
Cu152      Cu  0.86695645  0.84370858  0.01533123     0.44200
Cu153      Cu  0.80781389  0.83243240  0.02385626     0.42000
Cu154      Cu  0.85389832  0.78419170  0.02180083     0.43900
N155        N  0.89225155  0.81851730  0.01712624    -0.34800
N156        N  0.88826407  0.79599775  0.01975920    -0.29100
C157        C  0.90897392  0.78486777  0.02174102    -0.05200
C158        C  0.92654144  0.80152400  0.02036371     0.07000
C159        C  0.91514874  0.82249368  0.01741959     0.00800
H160        H  0.91104684  0.76633661  0.02469590     0.08500
H161        H  0.92293365  0.83964261  0.01622693     0.07600
N162        N  0.81776822  0.77967191  0.02367996    -0.36300
N163        N  0.80179124  0.79639030  0.02438535    -0.28400
C164        C  0.78060212  0.78645335  0.02551728    -0.03700
C165        C  0.78318382  0.76239687  0.02546745     0.04900
C166        C  0.80700145  0.75883180  0.02442341     0.03000
H167        H  0.76452093  0.79616489  0.02680110     0.08100
H168        H  0.81593405  0.74221262  0.02410220     0.07000
N169        N  0.67657348  0.58561696  0.02491286    -0.27400
N170        N  0.65403869  0.58233973  0.02214056    -0.35300
C171        C  0.64942877  0.55948550  0.02123725     0.00900
C172        C  0.67001839  0.54735163  0.02351674     0.06900
C173        C  0.68709374  0.56446076  0.02575627    -0.06200
H174        H  0.63212781  0.55221369  0.01970173     0.07600
H175        H  0.70550715  0.56173250  0.02853684     0.08800
Cu176      Cu  0.62993747  0.60865401  0.02185603     0.44200
Cu177      Cu  0.68902528  0.61981159  0.02871428     0.42000
Cu178      Cu  0.64200517  0.66747940  0.03308834     0.43900
N179        N  0.60426551  0.63323423  0.02490654    -0.34800
N180        N  0.60781409  0.65553111  0.02938171    -0.29100
C181        C  0.58687293  0.66629282  0.03097405    -0.05200
C182        C  0.56964020  0.64958970  0.02743339     0.07000
C183        C  0.58145934  0.62900720  0.02365344     0.00800
H184        H  0.58439090  0.68461140  0.03480621     0.08500
H185        H  0.57399979  0.61195618  0.02051209     0.07600
N186        N  0.67814862  0.67238337  0.03333058    -0.36300
N187        N  0.69439416  0.65595941  0.03182920    -0.28400
C188        C  0.71542913  0.66630056  0.03158037    -0.03700
C189        C  0.71245899  0.69027260  0.03297056     0.04900
C190        C  0.68859195  0.69340328  0.03396027     0.03000
H191        H  0.73167993  0.65699202  0.02961438     0.08100
H192        H  0.67939084  0.70985959  0.03475247     0.07000
N193        N  0.82169159  0.98020962  0.91318391    -0.27400
N194        N  0.84426810  0.98110601  0.91709806    -0.35300
C195        C  0.84829876  0.98102204  0.94005433     0.00900
C196        C  0.82724743  0.97998243  0.95151762     0.06900
C197        C  0.81053522  0.97952421  0.93396150    -0.06200
H198        H  0.86545453  0.98123671  0.94783528     0.07600
H199        H  0.79187805  0.97840057  0.93610040     0.08800
Cu200      Cu  0.86889444  0.98078897  0.89136562     0.44200
Cu201      Cu  0.80991179  0.97929818  0.87878644     0.42000
Cu202      Cu  0.85692652  0.97735824  0.83131203     0.43900
N203        N  0.89446429  0.97772032  0.86677763    -0.34800
N204        N  0.89093941  0.97644159  0.84407026    -0.29100
C205        C  0.91183945  0.97459442  0.83334001    -0.05200
C206        C  0.92899860  0.97460439  0.85047275     0.07000
C207        C  0.91721697  0.97661637  0.87128723     0.00800
H208        H  0.91433419  0.97345079  0.81467082     0.08500
H209        H  0.92466062  0.97744905  0.88861524     0.07600
N210        N  0.82089817  0.97855220  0.82623096    -0.36300
N211        N  0.80471083  0.97908444  0.84271258    -0.28400
C212        C  0.78364210  0.97947562  0.83253152    -0.03700
C213        C  0.78648194  0.97938676  0.80853466     0.04900
C214        C  0.81035746  0.97864883  0.80525821     0.03000
H215        H  0.76745834  0.97922052  0.84210893     0.08100
H216        H  0.81949914  0.97826600  0.78877450     0.07000
N217        N  0.67709291  0.97657064  0.63317990    -0.27400
N218        N  0.65451119  0.97860872  0.62967268    -0.35300
C219        C  0.65014198  0.97909935  0.60676184     0.00900
C220        C  0.67097021  0.97731474  0.59495372     0.06900
C221        C  0.68788448  0.97575359  0.61222653    -0.06200
H222        H  0.63292227  0.98044524  0.59923974     0.07600
H223        H  0.70645083  0.97393435  0.60977547     0.08800
Cu224      Cu  0.63036072  0.97988969  0.65594741     0.44200
Cu225      Cu  0.68973617  0.97490658  0.66723020     0.42000
Cu226      Cu  0.64421580  0.97612787  0.71576509     0.43900
N227        N  0.60562573  0.97920866  0.68167066    -0.34800
N228        N  0.60990004  0.97763387  0.70423387    -0.29100
C229        C  0.58937157  0.97685565  0.71577568    -0.05200
C230        C  0.57162180  0.97796068  0.69933156     0.07000
C231        C  0.58269748  0.97945427  0.67807024     0.00800
H232        H  0.58754181  0.97525905  0.73448889     0.08500
H233        H  0.57465400  0.98032034  0.66101471     0.07600
N234        N  0.68026497  0.97536534  0.71995768    -0.36300
N235        N  0.69606416  0.97486111  0.70311420    -0.28400
C236        C  0.71736802  0.97495931  0.71282587    -0.03700
C237        C  0.71503126  0.97542893  0.73688477     0.04900
C238        C  0.69123986  0.97578784  0.74067532     0.03000
H239        H  0.73334174  0.97541709  0.70290483     0.08100
H240        H  0.68243977  0.97630574  0.75734163     0.07000
N241        N  0.00430651  0.86493016  0.84862965    -0.27400
N242        N  0.00576544  0.86930542  0.87118250    -0.35300
C243        C  0.00550761  0.89236624  0.87466755     0.00900
C244        C  0.00381908  0.90338165  0.85331519     0.06900
C245        C  0.00314733  0.88545874  0.83698914    -0.06200
H246        H  0.00618279  0.90054320  0.89167610     0.07600
H247        H  0.00146867  0.88716885  0.81826966     0.08800
Cu248      Cu  0.00698334  0.84417710  0.89675976     0.44200
Cu249      Cu  0.00281788  0.83046801  0.83715741     0.42000
Cu250      Cu  0.00036929  0.78433015  0.88492456     0.43900
N251        N  0.00640860  0.81926509  0.92254768    -0.34800
N252        N  0.00365767  0.79671571  0.91879951    -0.29100
C253        C  0.00259346  0.78562800  0.93958530    -0.05200
C254        C  0.00474497  0.80229553  0.95702700     0.07000
C255        C  0.00717711  0.82328978  0.94550786     0.00800
H256        H  0.99967616  0.76711120  0.94180228     0.08500
H257        H  0.00858892  0.84045244  0.95326274     0.07600
N258        N  0.99872827  0.77848984  0.84914660    -0.36300
N259        N  0.99989113  0.79447378  0.83246113    -0.28400
C260        C  0.99859001  0.78372979  0.81164179    -0.03700
C261        C  0.99665187  0.75992094  0.81527901     0.04900
C262        C  0.99661221  0.75732229  0.83928426     0.03000
H263        H  0.99920622  0.79265402  0.79502376     0.08100
H264        H  0.99484702  0.74127551  0.84904307     0.07000
N265        N  0.99403781  0.58466861  0.70822294    -0.27400
N266        N  0.99733698  0.58106225  0.68574470    -0.35300
C267        C  0.99793455  0.55816590  0.68146861     0.00900
C268        C  0.99495219  0.54641629  0.70222788     0.06900
C269        C  0.99256764  0.56372968  0.71906383    -0.06200
H270        H  0.00018456  0.55061058  0.66431140     0.07600
H271        H  0.98965521  0.56132299  0.73754986     0.08800
Cu272      Cu  0.99989190  0.60687307  0.66119217     0.44200
Cu273      Cu  0.99134776  0.61883118  0.72036371     0.42000
Cu274      Cu  0.99396917  0.66626099  0.67302652     0.43900
N275        N  0.99947226  0.63146202  0.63528263    -0.34800
N276        N  0.99719001  0.65407833  0.63888006    -0.29100
C277        C  0.99668175  0.66500847  0.61794570    -0.05200
C278        C  0.99860785  0.64810648  0.60062643     0.07000
C279        C  0.00036125  0.62719169  0.61238517     0.00800
H280        H  0.99461047  0.68361690  0.61552724     0.08500
H281        H  0.00184039  0.60994374  0.60483075     0.07600
N282        N  0.99102734  0.67129872  0.70902535    -0.36300
N283        N  0.99009344  0.65490226  0.72534984    -0.28400
C284        C  0.98904057  0.66523800  0.74638064    -0.03700
C285        C  0.98921951  0.68919959  0.74332970     0.04900
C286        C  0.99057996  0.69234390  0.71941434     0.03000
H287        H  0.98849810  0.65589006  0.76276694     0.08100
H288        H  0.99208709  0.70871022  0.71015120     0.07000
N289        N  0.50168694  0.15417633  0.63615601    -0.27400
N290        N  0.50158926  0.13147527  0.63235696    -0.35300
C291        C  0.50113863  0.12732213  0.60942187     0.00900
C292        C  0.50091365  0.14840029  0.59782925     0.06900
C293        C  0.50129824  0.16526404  0.61529766    -0.06200
H294        H  0.50078518  0.11007034  0.60173978     0.07600
H295        H  0.50109971  0.18400495  0.61304047     0.08800
Cu296      Cu  0.50129488  0.10673683  0.65808449     0.44200
Cu297      Cu  0.50169568  0.16644348  0.67049948     0.42000
Cu298      Cu  0.49920155  0.11923645  0.71777775     0.43900
N299        N  0.49992127  0.08121319  0.68296724    -0.34800
N300        N  0.49910010  0.08502632  0.70563883    -0.29100
C301        C  0.49848001  0.06420355  0.71675907    -0.05200
C302        C  0.49888053  0.04676127  0.69990732     0.07000
C303        C  0.49979298  0.05829427  0.67884609     0.00800
H304        H  0.49789767  0.06196576  0.73548897     0.08500
H305        H  0.50047287  0.05058207  0.66162291     0.07600
N306        N  0.49993317  0.15524711  0.72292945    -0.36300
N307        N  0.50075869  0.17167772  0.70665016    -0.28400
C308        C  0.50077383  0.19267721  0.71717573    -0.03700
C309        C  0.49979287  0.18946644  0.74113719     0.04900
C310        C  0.49949470  0.16546097  0.74403136     0.03000
H311        H  0.50115289  0.20913923  0.70795147     0.08100
H312        H  0.49942807  0.15586522  0.76025836     0.07000
N313        N  0.49382548  0.36649838  0.84834398    -0.27400
N314        N  0.49443833  0.37012630  0.87105769    -0.35300
C315        C  0.49435469  0.39305417  0.87534580     0.00900
C316        C  0.49367708  0.40478815  0.85434554     0.06900
C317        C  0.49336439  0.38742508  0.83738895    -0.06200
H318        H  0.49490017  0.40064459  0.89262800     0.07600
H319        H  0.49298335  0.38979754  0.81867085     0.08800
Cu320      Cu  0.49566916  0.34410663  0.89557731     0.44200
Cu321      Cu  0.49422016  0.33231023  0.83582343     0.42000
Cu322      Cu  0.49558173  0.28433039  0.88240568     0.43900
N323        N  0.49649796  0.31878223  0.92081179    -0.34800
N324        N  0.49619318  0.29611960  0.91678696    -0.29100
C325        C  0.49664148  0.28477128  0.93751191    -0.05200
C326        C  0.49732081  0.30145101  0.95512844     0.07000
C327        C  0.49720064  0.32264908  0.94376057     0.00800
H328        H  0.49645965  0.26600604  0.93956807     0.08500
H329        H  0.49743999  0.33982060  0.95162445     0.07600
N330        N  0.49669853  0.27975839  0.84627783    -0.36300
N331        N  0.49624795  0.29633057  0.83011753    -0.28400
C332        C  0.49737977  0.28625942  0.80893576    -0.03700
C333        C  0.49872205  0.26227543  0.81175497     0.04900
C334        C  0.49812854  0.25888462  0.83566666     0.03000
H335        H  0.49667678  0.29582517  0.79269599     0.08100
H336        H  0.49879922  0.24237884  0.84480194     0.07000
O337        O  0.50200743  0.94085850  0.68307750    -0.73100
O338        O  0.49882063  0.00955606  0.68313800    -0.74100
O339        O  0.53443285  0.97680939  0.68298581    -0.62700
O340        O  0.46606619  0.97366300  0.68308238    -0.71100
O341        O  0.46490328  0.97435764  0.72177747    -0.70700
O342        O  0.53600460  0.97626561  0.72166717    -0.61900
O343        O  0.49952279  0.01088068  0.72183511    -0.74400
O344        O  0.50134256  0.93979618  0.72178916    -0.73200
Cu345      Cu  0.50030173  0.97522188  0.68193342     1.04600
Cu346      Cu  0.50042855  0.97532090  0.72334126     1.04300
C347        C  0.50216464  0.92932824  0.70207262     0.93100
C348        C  0.49897982  0.02123135  0.70205041     0.92200
C349        C  0.54619844  0.97696176  0.70180600     0.84400
C350        C  0.45449552  0.97360329  0.70201916     0.90700
N351        N  0.99628366  0.08492666  0.84557066    -0.27400
N352        N  0.99466719  0.08086410  0.86815062    -0.35300
C353        C  0.99506398  0.05791208  0.87203395     0.00900
C354        C  0.99703450  0.04655622  0.85092293     0.06900
C355        C  0.99773123  0.06420457  0.83426877    -0.06200
H356        H  0.99422797  0.05004817  0.88917880     0.07600
H357        H  0.99941666  0.06217858  0.81558289     0.08800
Cu358      Cu  0.99294993  0.10612384  0.89336236     0.44200
Cu359      Cu  0.99666577  0.11943002  0.83411878     0.42000
Cu360      Cu  0.99448567  0.16597342  0.88250822     0.43900
N361        N  0.99352747  0.13020157  0.91976360    -0.34800
N362        N  0.99426369  0.15296354  0.91645636    -0.29100
C363        C  0.99538750  0.16360007  0.93749650    -0.05200
C364        C  0.99539774  0.14638883  0.95458920     0.07000
C365        C  0.99416666  0.12555847  0.94261202     0.00800
H366        H  0.99641421  0.18226733  0.94011962     0.08500
H367        H  0.99406337  0.10815972  0.94995457     0.07600
N368        N  0.99512136  0.17171473  0.84652322    -0.36300
N369        N  0.99595271  0.15562046  0.82988760    -0.28400
C370        C  0.99601691  0.16632545  0.80903039    -0.03700
C371        C  0.99503343  0.19020504  0.81248421     0.04900
C372        C  0.99465178  0.19294132  0.83649845     0.03000
H373        H  0.99639484  0.15726807  0.79247433     0.08100
H374        H  0.99439890  0.20915650  0.84614435     0.07000
N375        N  0.99125999  0.36488303  0.70523825    -0.27400
N376        N  0.99171381  0.36901962  0.68261097    -0.35300
C377        C  0.99276783  0.39199721  0.67889859     0.00900
C378        C  0.99302353  0.40321509  0.70018100     0.06900
C379        C  0.99199659  0.38551352  0.71672422    -0.06200
H380        H  0.99341239  0.39997119  0.66179726     0.07600
H381        H  0.99191611  0.38744210  0.73549839     0.08800
Cu382      Cu  0.99177358  0.34374287  0.65726954     0.44200
Cu383      Cu  0.99047504  0.33052326  0.71685108     0.42000
Cu384      Cu  0.99423812  0.28390598  0.66885549     0.43900
N385        N  0.99385862  0.31933849  0.63115606    -0.34800
N386        N  0.99481856  0.29660590  0.63465573    -0.29100
C387        C  0.99608263  0.28581899  0.61365904    -0.05200
C388        C  0.99598649  0.30290413  0.59639644     0.07000
C389        C  0.99456164  0.32379653  0.60827507     0.00800
H390        H  0.99695035  0.26712579  0.61116390     0.08500
H391        H  0.99394575  0.34113152  0.60080558     0.07600
N392        N  0.99332861  0.27828604  0.70496806    -0.36300
N393        N  0.99187215  0.29448378  0.72145328    -0.28400
C394        C  0.99198154  0.28401384  0.74242552    -0.03700
C395        C  0.99374420  0.26014636  0.73924611     0.04900
C396        C  0.99437825  0.25718568  0.71523814     0.03000
H397        H  0.99126065  0.29325167  0.75887026     0.08100
H398        H  0.99521884  0.24089173  0.70576312     0.07000
N399        N  0.17824219  0.97045867  0.91689650    -0.27400
N400        N  0.15557751  0.97143447  0.92025609    -0.35300
C401        C  0.15098918  0.97085612  0.94307997     0.00900
C402        C  0.17173970  0.96953902  0.95504366     0.06900
C403        C  0.18888296  0.96933352  0.93793659    -0.06200
H404        H  0.13368675  0.97180859  0.95044310     0.07600
H405        H  0.20750877  0.96877197  0.94056494     0.08800
Cu406      Cu  0.13144435  0.97447450  0.89423211     0.44200
Cu407      Cu  0.19102815  0.97157154  0.88291413     0.42000
Cu408      Cu  0.14427498  0.97765119  0.83512396     0.43900
N409        N  0.10600781  0.97671880  0.86941636    -0.34800
N410        N  0.10994291  0.97764670  0.84678364    -0.29100
C411        C  0.08923168  0.97798019  0.83552961    -0.05200
C412        C  0.07173007  0.97726355  0.85226450     0.07000
C413        C  0.08313588  0.97653105  0.87339895     0.00800
H414        H  0.08710051  0.97845394  0.81678305     0.08500
H415        H  0.07537087  0.97550854  0.89056205     0.07600
N416        N  0.18030698  0.97644946  0.83053940    -0.36300
N417        N  0.19641426  0.97409633  0.84697711    -0.28400
C418        C  0.21746678  0.97351652  0.83678582    -0.03700
C419        C  0.21465803  0.97577152  0.81291028     0.04900
C420        C  0.19085356  0.97747210  0.80963458     0.03000
H421        H  0.23369563  0.97166897  0.84617079     0.08100
H422        H  0.18166321  0.97866674  0.79321447     0.07000
N423        N  0.39091423  0.97187642  0.70602640    -0.27400
N424        N  0.39449825  0.97116163  0.68331197    -0.35300
C425        C  0.41732336  0.97159967  0.67899692     0.00900
C426        C  0.42901892  0.97264125  0.69997944     0.06900
C427        C  0.41176765  0.97279418  0.71695401    -0.06200
H428        H  0.42485800  0.97132765  0.66170112     0.07600
H429        H  0.41415729  0.97361231  0.73565661     0.08800
Cu430      Cu  0.36865763  0.97030425  0.65872466     0.44200
Cu431      Cu  0.35693947  0.97169445  0.71868031     0.42000
Cu432      Cu  0.30927110  0.97224839  0.67205511     0.43900
N433        N  0.34348087  0.97156101  0.63348396    -0.34800
N434        N  0.32092479  0.97238131  0.63757991    -0.29100
C435        C  0.30960116  0.97349596  0.61687712    -0.05200
C436        C  0.32618851  0.97345897  0.59921180     0.07000
C437        C  0.34731012  0.97218264  0.61052379     0.00800
H438        H  0.29091109  0.97435883  0.61486407     0.08500
H439        H  0.36439746  0.97179298  0.60262457     0.07600
N440        N  0.30456103  0.97193929  0.70821973    -0.36300
N441        N  0.32106799  0.97145594  0.72441379    -0.28400
C442        C  0.31098451  0.97132837  0.74559765    -0.03700
C443        C  0.28708340  0.97179049  0.74271119     0.04900
C444        C  0.28370646  0.97229462  0.71881920     0.03000
H445        H  0.32046866  0.97153655  0.76189933     0.08100
H446        H  0.26721837  0.97282349  0.70972574     0.07000
O447        O  0.96587490  0.97404318  0.86787012    -0.73100
O448        O  0.03446052  0.97659129  0.86873598    -0.74100
O449        O  0.99873769  0.00950991  0.86782117    -0.62700
O450        O  0.00162004  0.94094315  0.86915279    -0.71100
O451        O  0.00191445  0.93889763  0.83050168    -0.70700
O452        O  0.99935619  0.01042336  0.82913051    -0.61900
O453        O  0.03610471  0.97590811  0.83006069    -0.74400
O454        O  0.96515021  0.97367541  0.82916074    -0.73200
Cu455      Cu  0.00015679  0.97526669  0.86951521     1.04600
Cu456      Cu  0.00065035  0.97465638  0.82813303     1.04300
C457        C  0.95450958  0.97389476  0.84877377     0.93100
C458        C  0.04626878  0.97662390  0.84993159     0.92200
C459        C  0.99848975  0.02100040  0.84881803     0.84400
C460        C  0.00234292  0.92889317  0.85051386     0.90700
N461        N  0.17327842  0.47544117  0.63814969    -0.27400
N462        N  0.15068328  0.47588642  0.63416923    -0.35300
C463        C  0.14676232  0.47505366  0.61119147     0.00900
C464        C  0.16787410  0.47404614  0.59978064     0.06900
C465        C  0.18451334  0.47436528  0.61741293    -0.06200
H466        H  0.12963996  0.47517399  0.60333557     0.07600
H467        H  0.20320536  0.47380520  0.61535042     0.08800
Cu468      Cu  0.12576480  0.47717220  0.65981392     0.44200
Cu469      Cu  0.18522803  0.47601417  0.67254077     0.42000
Cu470      Cu  0.13805219  0.47609087  0.71981189     0.43900
N471        N  0.10013416  0.47662253  0.68474470    -0.34800
N472        N  0.10387208  0.47602087  0.70744978    -0.29100
C473        C  0.08305537  0.47535467  0.71849357    -0.05200
C474        C  0.06565994  0.47553327  0.70160122     0.07000
C475        C  0.07726942  0.47635537  0.68057095     0.00800
H476        H  0.08078091  0.47475128  0.73721622     0.08500
H477        H  0.06962950  0.47664754  0.66331198     0.07600
N478        N  0.17408251  0.47651384  0.72503549    -0.36300
N479        N  0.19039725  0.47635113  0.70866064    -0.28400
C480        C  0.21140052  0.47631993  0.71903201    -0.03700
C481        C  0.20833729  0.47669233  0.74297798     0.04900
C482        C  0.18444821  0.47669260  0.74609575     0.03000
H483        H  0.22777202  0.47611644  0.70974182     0.08100
H484        H  0.17516121  0.47628028  0.76249101     0.07000
N485        N  0.38482799  0.47889889  0.84913052    -0.27400
N486        N  0.38867769  0.48438457  0.87115864    -0.35300
C487        C  0.41160648  0.48517326  0.87511031     0.00900
C488        C  0.42308661  0.48003389  0.85460035     0.06900
C489        C  0.40557606  0.47623166  0.83828220    -0.06200
H490        H  0.41937599  0.48867850  0.89195226     0.07600
H491        H  0.40773135  0.47122207  0.82021632     0.08800
Cu492      Cu  0.36296083  0.48815421  0.89579703     0.44200
Cu493      Cu  0.35067908  0.47442488  0.83738968     0.42000
Cu494      Cu  0.30382432  0.47575331  0.88399622     0.43900
N495        N  0.33824681  0.48518832  0.92152974    -0.34800
N496        N  0.31614598  0.48009163  0.91792101    -0.29100
C497        C  0.30562966  0.47708600  0.93882169    -0.05200
C498        C  0.32224478  0.48024570  0.95614719     0.07000
C499        C  0.34254270  0.48544818  0.94444949     0.00800
H500        H  0.28766674  0.47199723  0.94116042     0.08500
H501        H  0.35955250  0.48828836  0.95203043     0.07600
N502        N  0.29837014  0.47320311  0.84807227    -0.36300
N503        N  0.31473498  0.47257695  0.83178454    -0.28400
C504        C  0.30444634  0.47181024  0.81069734    -0.03700
C505        C  0.28052810  0.47193585  0.81371096     0.04900
C506        C  0.27739284  0.47291713  0.83764685     0.03000
H507        H  0.31380318  0.47211209  0.79434218     0.08100
H508        H  0.26100311  0.47367071  0.84687777     0.07000
O509        O  0.99398303  0.51018443  0.72369083    -0.73100
O510        O  0.99391659  0.43884380  0.72269454    -0.74100
O511        O  0.02964749  0.47461052  0.72337182    -0.62700
O512        O  0.95851221  0.47440185  0.72304987    -0.71100
O513        O  0.95985498  0.47463963  0.68435446    -0.70700
O514        O  0.02853558  0.47522017  0.68468523    -0.61900
O515        O  0.99430124  0.44066369  0.68402354    -0.74400
O516        O  0.99410657  0.50940231  0.68498197    -0.73200
Cu517      Cu  0.99402189  0.47450650  0.72477242     1.04600
Cu518      Cu  0.99420613  0.47502460  0.68338098     1.04300
C519        C  0.99420199  0.52083074  0.70404348     0.93100
C520        C  0.99386281  0.42873134  0.70275511     0.92200
C521        C  0.04011472  0.47505891  0.70364447     0.84400
C522        C  0.94819391  0.47410800  0.70323949     0.90700
O523        O  0.46031819  0.47777743  0.87139523    -0.73100
O524        O  0.52914832  0.47558311  0.87074957    -0.74100
O525        O  0.49569978  0.51093806  0.87103021    -0.62700
O526        O  0.49383852  0.44209975  0.87115994    -0.71100
O527        O  0.49392562  0.44081017  0.83247195    -0.70700
O528        O  0.49499579  0.51219008  0.83234563    -0.61900
O529        O  0.53014128  0.47588810  0.83206724    -0.74400
O530        O  0.45887860  0.47719565  0.83271721    -0.73200
Cu531      Cu  0.49476374  0.47656551  0.87221491     1.04600
Cu532      Cu  0.49446970  0.47649111  0.83083750     1.04300
C533        C  0.44858436  0.47810121  0.85252307     0.93100
C534        C  0.54068872  0.47550828  0.85177060     0.92200
C535        C  0.49546715  0.52260656  0.85212135     0.84400
C536        C  0.49376245  0.43040353  0.85225450     0.90700
N537        N  0.49504670  0.58562480  0.20785508    -0.27400
N538        N  0.49002191  0.58187742  0.18570448    -0.35300
C539        C  0.48864661  0.55893992  0.18174937     0.00900
C540        C  0.49298906  0.54730612  0.20234864     0.06900
C541        C  0.49690842  0.56474555  0.21877156    -0.06200
H542        H  0.48560865  0.55125615  0.16476990     0.07600
H543        H  0.50168552  0.56243807  0.23688268     0.08800
Cu544      Cu  0.48817576  0.60735007  0.16064034     0.44200
Cu545      Cu  0.50031903  0.61977249  0.21945735     0.42000
Cu546      Cu  0.49963145  0.66633221  0.17191065     0.43900
N547        N  0.49179477  0.63150659  0.13448642    -0.34800
N548        N  0.49617172  0.65382532  0.13802303    -0.29100
C549        C  0.49862981  0.66445479  0.11711617    -0.05200
C550        C  0.49587314  0.64768070  0.09984701     0.07000
C551        C  0.49154886  0.62712403  0.11157089     0.00800
H552        H  0.50266423  0.68273383  0.11471164     0.08500
H553        H  0.48875393  0.61004866  0.10400374     0.07600
N554        N  0.50222283  0.67206266  0.20772060    -0.36300
N555        N  0.50281521  0.65588446  0.22426978    -0.28400
C556        C  0.50423113  0.66652619  0.24514676    -0.03700
C557        C  0.50454879  0.69044709  0.24168451     0.04900
C558        C  0.50311455  0.69325936  0.21776219     0.03000
H559        H  0.50419325  0.65742988  0.26167635     0.08100
H560        H  0.50266305  0.70957413  0.20827318     0.07000
N561        N  0.49698754  0.79697480  0.41734901    -0.27400
N562        N  0.49302092  0.81934806  0.42106450    -0.35300
C563        C  0.49150998  0.82338883  0.44397658     0.00900
C564        C  0.49460702  0.80259442  0.45566118     0.06900
C565        C  0.49802192  0.78599331  0.43825456    -0.06200
H566        H  0.48880359  0.84045364  0.45160472     0.07600
H567        H  0.50149728  0.76758776  0.44061123     0.08800
Cu568      Cu  0.49122052  0.84417005  0.39541702     0.44200
Cu569      Cu  0.50115081  0.78509374  0.38306527     0.42000
Cu570      Cu  0.50028188  0.83270286  0.33624193     0.43900
N571        N  0.49232842  0.87009850  0.37085021    -0.34800
N572        N  0.49597252  0.86653238  0.34842077    -0.29100
C573        C  0.49684309  0.88740519  0.33747407    -0.05200
C574        C  0.49368785  0.90468248  0.35415542     0.07000
C575        C  0.49086544  0.89299786  0.37498535     0.00800
H576        H  0.50016014  0.88980709  0.31905633     0.08500
H577        H  0.48850013  0.90060352  0.39210462     0.07600
N578        N  0.50213097  0.79688385  0.33067660    -0.36300
N579        N  0.50264255  0.78029322  0.34682314    -0.28400
C580        C  0.50341592  0.75942344  0.33607646    -0.03700
C581        C  0.50310660  0.76294817  0.31217197     0.04900
C582        C  0.50243585  0.78691178  0.30944644     0.03000
H583        H  0.50367724  0.74282084  0.34505731     0.08100
H584        H  0.50237419  0.79654969  0.29322575     0.07000
O585        O  0.49839560  0.63202133  0.99360969    -0.73100
O586        O  0.49813718  0.63084692  0.06257569    -0.74100
O587        O  0.46408600  0.63066114  0.02800394    -0.62700
O588        O  0.53278621  0.63209697  0.02804006    -0.71100
O589        O  0.53329746  0.67081134  0.02857755    -0.70700
O590        O  0.46218198  0.66934260  0.02865822    -0.61900
O591        O  0.49766383  0.66955782  0.06410219    -0.74400
O592        O  0.49747187  0.67073337  0.99297300    -0.73200
Cu593      Cu  0.49843653  0.63024768  0.02804732     1.04600
Cu594      Cu  0.49767364  0.67165333  0.02861035     1.04300
C595        C  0.49770353  0.65113041  0.98224797     0.93100
C596        C  0.49746911  0.64970633  0.07434672     0.92200
C597        C  0.45213990  0.64939048  0.02836927     0.84400
C598        C  0.54407003  0.65123569  0.02815693     0.90700
N599        N  0.17607511  0.86232855  0.03347296    -0.27400
N600        N  0.15422470  0.86649033  0.03918252    -0.35300
C601        C  0.15034681  0.88949988  0.03893655     0.00900
C602        C  0.17070994  0.90067387  0.03288926     0.06900
C603        C  0.18688050  0.88294498  0.02962091    -0.06200
H604        H  0.13364203  0.89750433  0.04237050     0.07600
H605        H  0.20479723  0.88482212  0.02418983     0.08800
Cu606      Cu  0.12943519  0.84118617  0.04444522     0.44200
Cu607      Cu  0.18776513  0.82805125  0.03027316     0.42000
Cu608      Cu  0.14072107  0.78199163  0.03187424     0.43900
N609        N  0.10341539  0.81675435  0.04147321    -0.34800
N610        N  0.10692335  0.79462754  0.03610301    -0.29100
C611        C  0.08604356  0.78418121  0.03307080    -0.05200
C612        C  0.06879931  0.80081412  0.03659929     0.07000
C613        C  0.08054742  0.82112785  0.04191930     0.00800
H614        H  0.08364278  0.76621162  0.02780954     0.08500
H615        H  0.07303712  0.83818403  0.04494688     0.07600
N616        N  0.17649627  0.77579915  0.02982888    -0.36300
N617        N  0.19292928  0.79201903  0.02937308    -0.28400
C618        C  0.21382741  0.78150504  0.02871151    -0.03700
C619        C  0.21058397  0.75757240  0.02857981     0.04900
C620        C  0.18666612  0.75462484  0.02940501     0.03000
H621        H  0.23025310  0.79069574  0.02831791     0.08100
H622        H  0.17726018  0.73830895  0.03025092     0.07000
N623        N  0.38846119  0.65251549  0.02862968    -0.27400
N624        N  0.39234116  0.62982525  0.02830905    -0.35300
C625        C  0.41523985  0.62579382  0.02820836     0.00900
C626        C  0.42666868  0.64694413  0.02846044     0.06900
C627        C  0.40918143  0.66370809  0.02874473    -0.06200
H628        H  0.42301115  0.60858693  0.02796269     0.07600
H629        H  0.41133026  0.68246011  0.02896443     0.08800
Cu630      Cu  0.36675516  0.60494934  0.02816131     0.44200
Cu631      Cu  0.35430508  0.66482498  0.02871846     0.42000
Cu632      Cu  0.30717647  0.61781924  0.02914491     0.43900
N633        N  0.34170509  0.57956798  0.02916302    -0.34800
N634        N  0.31911518  0.58355730  0.02957725    -0.29100
C635        C  0.30785206  0.56283124  0.03010839    -0.05200
C636        C  0.32450530  0.54523912  0.03007954     0.07000
C637        C  0.34561552  0.55660484  0.02945773     0.00800
H638        H  0.28915284  0.56075811  0.03031364     0.08500
H639        H  0.36273002  0.54874024  0.02905873     0.07600
N640        N  0.30203982  0.65381450  0.02861275    -0.36300
N641        N  0.31832914  0.67020371  0.02856193    -0.28400
C642        C  0.30792330  0.69124921  0.02853086    -0.03700
C643        C  0.28402653  0.68805265  0.02871353     0.04900
C644        C  0.28102823  0.66410737  0.02857554     0.03000
H645        H  0.31719695  0.70765658  0.02813604     0.08100
H646        H  0.26469636  0.65474634  0.02884551     0.07000
N647        N  0.99136626  0.79482135  0.13761504    -0.27400
N648        N  0.98790663  0.81727291  0.13385774    -0.35300
C649        C  0.98707136  0.82136158  0.11094701     0.00900
C650        C  0.99019001  0.80054032  0.09934446     0.06900
C651        C  0.99280130  0.78384546  0.11675146    -0.06200
H652        H  0.98530504  0.83853536  0.10328675     0.07600
H653        H  0.99646297  0.76546857  0.11445165     0.08800
Cu654      Cu  0.98726477  0.84244192  0.15917029     0.44200
Cu655      Cu  0.99555970  0.78284994  0.17171106     0.42000
Cu656      Cu  0.99636226  0.83124442  0.21789665     0.43900
N657        N  0.99021222  0.86876583  0.18311768    -0.34800
N658        N  0.99359239  0.86530334  0.20559988    -0.29100
C659        C  0.99570750  0.88627319  0.21623141    -0.05200
C660        C  0.99373336  0.90348109  0.19925255     0.07000
C661        C  0.99024544  0.89164612  0.17860265     0.00800
H662        H  0.99903099  0.88875902  0.23464279     0.08500
H663        H  0.98823837  0.89910978  0.16137519     0.07600
N664        N  0.99895806  0.79540685  0.22369390    -0.36300
N665        N  0.99881512  0.77857656  0.20778348    -0.28400
C666        C  0.00065771  0.75786603  0.21870771    -0.03700
C667        C  0.00177641  0.76173029  0.24252645     0.04900
C668        C  0.00083785  0.78572803  0.24496611     0.03000
H669        H  0.00071205  0.74114874  0.20993048     0.08100
H670        H  0.00164425  0.79559480  0.26103021     0.07000
N671        N  0.99996681  0.65458327  0.41885418    -0.27400
N672        N  0.99824567  0.63190632  0.42240461    -0.35300
C673        C  0.99767017  0.62752850  0.44529506     0.00900
C674        C  0.99905786  0.64841990  0.45713912     0.06900
C675        C  0.00045647  0.66542468  0.43985274    -0.06200
H676        H  0.99654232  0.61022847  0.45278297     0.07600
H677        H  0.00201615  0.68407251  0.44233703     0.08800
Cu678      Cu  0.99778909  0.60738008  0.39645611     0.44200
Cu679      Cu  0.00233102  0.66709228  0.38462162     0.42000
Cu680      Cu  0.00524850  0.62037770  0.33710276     0.43900
N681        N  0.99956273  0.58212066  0.37128360    -0.34800
N682        N  0.00228817  0.58618031  0.34880325    -0.29100
C683        C  0.00300475  0.56550867  0.33742680    -0.05200
C684        C  0.00079812  0.54787734  0.35390607     0.07000
C685        C  0.99863856  0.55914604  0.37502966     0.00800
H686        H  0.00518862  0.56349548  0.31879139     0.08500
H687        H  0.99657173  0.55121566  0.39203649     0.07600
N688        N  0.00675904  0.65635637  0.33220615    -0.36300
N689        N  0.00541670  0.67266189  0.34858881    -0.28400
C690        C  0.00595549  0.69373774  0.33823704    -0.03700
C691        C  0.00789005  0.69067404  0.31432004     0.04900
C692        C  0.00825090  0.66672354  0.31121955     0.03000
H693        H  0.00482650  0.71014696  0.34750333     0.08100
H694        H  0.00857743  0.65735640  0.29484424     0.07000
O695        O  0.99338606  0.81785364  0.06251330    -0.73100
O696        O  0.00209431  0.81884120  0.99430036    -0.74100
O697        O  0.96359605  0.81834820  0.02401021    -0.62700
O698        O  0.03195055  0.81825654  0.03292024    -0.71100
O699        O  0.03300990  0.77957530  0.03127147    -0.70700
O700        O  0.96223889  0.77965548  0.02458320    -0.61900
O701        O  0.00089807  0.78016196  0.99252253    -0.74400
O702        O  0.99437346  0.77914116  0.06336067    -0.73200
Cu703      Cu  0.99776078  0.81948386  0.02844323     1.04600
Cu704      Cu  0.99764271  0.77808408  0.02790435     1.04300
C705        C  0.99271644  0.79877715  0.07390032     0.93100
C706        C  0.00257206  0.80004170  0.98245407     0.92200
C707        C  0.95195465  0.79943693  0.02309473     0.84400
C708        C  0.04342404  0.79921855  0.03341867     0.90700
N709        N  0.17642231  0.58283442  0.53211116    -0.27400
N710        N  0.15385534  0.57950758  0.53460213    -0.35300
C711        C  0.14910733  0.55669321  0.53387569     0.00900
C712        C  0.16962801  0.54467918  0.53081622     0.06900
C713        C  0.18682098  0.56174333  0.52988485    -0.06200
H714        H  0.13179258  0.54940598  0.53514115     0.07600
H715        H  0.20526068  0.55907657  0.52724860     0.08800
Cu716      Cu  0.12972796  0.60560119  0.53695493     0.44200
Cu717      Cu  0.18942345  0.61692159  0.53038240     0.42000
Cu718      Cu  0.14275462  0.66442141  0.52783192     0.43900
N719        N  0.10441071  0.63055904  0.53459575    -0.34800
N720        N  0.10841776  0.65292669  0.53098532    -0.29100
C721        C  0.08772395  0.66408430  0.52914998    -0.05200
C722        C  0.07015341  0.64756903  0.53156616     0.07000
C723        C  0.08151153  0.62666165  0.53501010     0.00800
H724        H  0.08564668  0.68253632  0.52574526     0.08500
H725        H  0.07369149  0.60963064  0.53722870     0.07600
N726        N  0.17876595  0.66932704  0.52577891    -0.36300
N727        N  0.19506315  0.65295929  0.52714104    -0.28400
C728        C  0.21607997  0.66327084  0.52583560    -0.03700
C729        C  0.21298067  0.68712273  0.52324632     0.04900
C730        C  0.18910345  0.69025372  0.52339985     0.03000
H731        H  0.23247416  0.65402162  0.52659596     0.08100
H732        H  0.17980635  0.70664460  0.52253436     0.07000
N733        N  0.38740592  0.79573737  0.52860475    -0.27400
N734        N  0.39076540  0.81799221  0.53337140    -0.35300
C735        C  0.41355351  0.82239071  0.53457218     0.00900
C736        C  0.42543682  0.80190372  0.53045170     0.06900
C737        C  0.40835722  0.78514317  0.52678304    -0.06200
H738        H  0.42093527  0.83948516  0.53766522     0.07600
H739        H  0.41094136  0.76694533  0.52247324     0.08800
Cu740      Cu  0.36463499  0.84207179  0.53590452     0.44200
Cu741      Cu  0.35357864  0.78356968  0.52407276     0.42000
Cu742      Cu  0.30583522  0.83000762  0.52366385     0.43900
N743        N  0.34001606  0.86767926  0.53318993    -0.34800
N744        N  0.31786562  0.86415288  0.52829978    -0.29100
C745        C  0.30725312  0.88517576  0.52632936    -0.05200
C746        C  0.32390468  0.90241310  0.52998450     0.07000
C747        C  0.34429427  0.89055142  0.53430048     0.00800
H748        H  0.28913768  0.88770523  0.52188416     0.08500
H749        H  0.36129676  0.89801484  0.53745402     0.07600
N750        N  0.30113153  0.79377270  0.52165306    -0.36300
N751        N  0.31780088  0.77773752  0.52207412    -0.28400
C752        C  0.30798198  0.75644227  0.52184730    -0.03700
C753        C  0.28406222  0.75899842  0.52131407     0.04900
C754        C  0.28037809  0.78288861  0.52096687     0.03000
H755        H  0.31766758  0.74025619  0.52211885     0.08100
H756        H  0.26375646  0.79175067  0.52097742     0.07000
O757        O  0.96412983  0.63157814  0.52829351    -0.73100
O758        O  0.03293020  0.63094864  0.52966079    -0.74100
O759        O  0.99810127  0.63116737  0.56337177    -0.62700
O760        O  0.99906326  0.63134720  0.49437363    -0.71100
O761        O  0.99936283  0.67005329  0.49329039    -0.70700
O762        O  0.99840905  0.66987499  0.56458745    -0.61900
O763        O  0.03442683  0.66964490  0.52956260    -0.74400
O764        O  0.96329271  0.67028844  0.52839378    -0.73200
Cu765      Cu  0.99854290  0.63010263  0.52889129     1.04600
Cu766      Cu  0.99888367  0.67150378  0.52894127     1.04300
C767        C  0.95267641  0.65063844  0.52819208     0.93100
C768        C  0.04468028  0.64979743  0.53008443     0.92200
C769        C  0.99828688  0.65010914  0.57502469     0.84400
C770        C  0.99923649  0.65032745  0.48277520     0.90700
O771        O  0.46232902  0.81925668  0.52919763    -0.73100
O772        O  0.53092844  0.81952932  0.52594131    -0.74100
O773        O  0.49499990  0.81949705  0.49299028    -0.62700
O774        O  0.49835914  0.81927055  0.56195444    -0.71100
O775        O  0.49751753  0.78056312  0.56297270    -0.70700
O776        O  0.49630890  0.78081612  0.49168326    -0.61900
O777        O  0.53230044  0.78082615  0.52684678    -0.74400
O778        O  0.46142501  0.78054861  0.52796049    -0.73200
Cu779      Cu  0.49663078  0.82056030  0.52749912     1.04600
Cu780      Cu  0.49687401  0.77915225  0.52733579     1.04300
C781        C  0.45089727  0.80021442  0.52907374     0.93100
C782        C  0.54259924  0.80061768  0.52621997     0.92200
C783        C  0.49534847  0.80057894  0.48128319     0.84400
C784        C  0.49845885  0.80025933  0.57349822     0.90700
N785        N  0.49723743  0.15563844  0.41629821    -0.27400
N786        N  0.49430298  0.13311056  0.41992783    -0.35300
C787        C  0.49348037  0.12889314  0.44282117     0.00900
C788        C  0.49602045  0.14974035  0.45454437     0.06900
C789        C  0.49829710  0.16657017  0.43721423    -0.06200
H790        H  0.49172583  0.11168484  0.45039612     0.07600
H791        H  0.50111747  0.18508109  0.43960333     0.08800
Cu792      Cu  0.49341134  0.10842388  0.39412875     0.44200
Cu793      Cu  0.50051987  0.16758773  0.38213192     0.42000
Cu794      Cu  0.50043697  0.12007122  0.33473386     0.43900
N795        N  0.49537854  0.08245763  0.36967129    -0.34800
N796        N  0.49809387  0.08597701  0.34710241    -0.29100
C797        C  0.49920187  0.06500482  0.33628655    -0.05200
C798        C  0.49721031  0.04775309  0.35322125     0.07000
C799        C  0.49480351  0.05957028  0.37402710     0.00800
H800        H  0.50152053  0.06253134  0.31772351     0.08500
H801        H  0.49289265  0.05207032  0.39124642     0.07600
N802        N  0.50181050  0.15612644  0.32968761    -0.36300
N803        N  0.50223057  0.17250639  0.34607946    -0.28400
C804        C  0.50276768  0.19356322  0.33573697    -0.03700
C805        C  0.50272104  0.19036919  0.31186062     0.04900
C806        C  0.50186687  0.16650653  0.30864149     0.03000
H807        H  0.50223188  0.21000040  0.34500015     0.08100
H808        H  0.50104630  0.15732896  0.29216415     0.07000
N809        N  0.50180108  0.36582085  0.20599347    -0.27400
N810        N  0.50321077  0.36967080  0.18334955    -0.35300
C811        C  0.50386166  0.39264101  0.17934128     0.00900
C812        C  0.50274021  0.40416131  0.20044210     0.06900
C813        C  0.50148791  0.38663200  0.21716953    -0.06200
H814        H  0.50439466  0.40041320  0.16214340     0.07600
H815        H  0.49982535  0.38882472  0.23583879     0.08800
Cu816      Cu  0.50215443  0.34404776  0.15836292     0.44200
Cu817      Cu  0.49917596  0.33161216  0.21813217     0.42000
Cu818      Cu  0.49336775  0.28487735  0.17074902     0.43900
N819        N  0.49892669  0.31928217  0.13270892    -0.34800
N820        N  0.49562077  0.29683901  0.13657991    -0.29100
C821        C  0.49420828  0.28568788  0.11581526    -0.05200
C822        C  0.49661900  0.30225780  0.09829180     0.07000
C823        C  0.49956116  0.32322005  0.10974872     0.00800
H824        H  0.49146370  0.26713596  0.11367004     0.08500
H825        H  0.50198512  0.34024363  0.10194735     0.07600
N826        N  0.49394651  0.27948587  0.20669060    -0.36300
N827        N  0.49639244  0.29560038  0.22314790    -0.28400
C828        C  0.49729676  0.28493585  0.24403570    -0.03700
C829        C  0.49499259  0.26116254  0.24066399     0.04900
C830        C  0.49310841  0.25833676  0.21680455     0.03000
H831        H  0.49969431  0.29384616  0.26050522     0.08100
H832        H  0.49229541  0.24206843  0.20728437     0.07000
O833        O  0.53105058  0.97465299  0.37032569    -0.73100
O834        O  0.46204308  0.97763999  0.37059965    -0.74100
O835        O  0.49499542  0.94189871  0.37092835    -0.62700
O836        O  0.49771070  0.01064711  0.37033980    -0.71100
O837        O  0.49721485  0.01161301  0.33163588    -0.70700
O838        O  0.49526110  0.94045912  0.33222571    -0.61900
O839        O  0.46075290  0.97701068  0.33191370    -0.74400
O840        O  0.53174582  0.97479997  0.33162390    -0.73200
Cu841      Cu  0.49649083  0.97625448  0.37172546     1.04600
Cu842      Cu  0.49625935  0.97598907  0.33032613     1.04300
C843        C  0.54242356  0.97404446  0.35122059     0.93100
C844        C  0.45037714  0.97759971  0.35166097     0.92200
C845        C  0.49469608  0.93018090  0.35205427     0.84400
C846        C  0.49752460  0.02216497  0.35133393     0.90700
O847        O  0.53133115  0.31809796  0.02759523    -0.73100
O848        O  0.46243041  0.31848407  0.02561488    -0.74100
O849        O  0.49619425  0.31873917  0.06095900    -0.62700
O850        O  0.49768345  0.31812328  0.99232954    -0.71100
O851        O  0.49726899  0.27942091  0.99112355    -0.70700
O852        O  0.49616013  0.28003847  0.06250066    -0.61900
O853        O  0.46123928  0.27978025  0.02609738    -0.74400
O854        O  0.53234396  0.27939234  0.02755077    -0.73200
Cu855      Cu  0.49691068  0.31949960  0.02661610     1.04600
Cu856      Cu  0.49674596  0.27809758  0.02683830     1.04300
C857        C  0.54286524  0.29908836  0.02802292     0.93100
C858        C  0.45082123  0.29952935  0.02535262     0.92200
C859        C  0.49618645  0.29991611  0.07275382     0.84400
C860        C  0.49750269  0.29919816  0.98069155     0.90700
N861        N  0.17555685  0.36308423  0.52601903    -0.27400
N862        N  0.15300938  0.36655228  0.52825943    -0.35300
C863        C  0.14854296  0.38938128  0.52954865     0.00900
C864        C  0.16926370  0.40130288  0.52801918     0.06900
C865        C  0.18627741  0.38412292  0.52583064    -0.06200
H866        H  0.13128118  0.39677141  0.53105126     0.07600
H867        H  0.20481403  0.38671563  0.52392613     0.08800
Cu868      Cu  0.12881070  0.34061618  0.52796834     0.44200
Cu869      Cu  0.18757588  0.32875400  0.52326766     0.42000
Cu870      Cu  0.13982841  0.28112814  0.52440572     0.43900
N871        N  0.10261588  0.31681836  0.52565688    -0.34800
N872        N  0.10569652  0.29404813  0.52452833    -0.29100
C873        C  0.08450318  0.28374819  0.52352647    -0.05200
C874        C  0.06766331  0.30126121  0.52397760     0.07000
C875        C  0.07994122  0.32183075  0.52528005     0.00800
H876        H  0.08158257  0.26512269  0.52260984     0.08500
H877        H  0.07290551  0.33933258  0.52615031     0.07600
N878        N  0.17604711  0.27609319  0.52381257    -0.36300
N879        N  0.19235471  0.29249189  0.52316717    -0.28400
C880        C  0.21336439  0.28213746  0.52316924    -0.03700
C881        C  0.21041631  0.25815520  0.52375598     0.04900
C882        C  0.18648913  0.25504292  0.52425938     0.03000
H883        H  0.22968749  0.29150842  0.52281630     0.08100
H884        H  0.17718630  0.23870251  0.52550491     0.07000
N885        N  0.38915600  0.15425380  0.52552804    -0.27400
N886        N  0.39315872  0.13161808  0.52414302    -0.35300
C887        C  0.41604196  0.12768382  0.52441784     0.00900
C888        C  0.42738247  0.14879758  0.52606257     0.06900
C889        C  0.40983664  0.16550311  0.52664742    -0.06200
H890        H  0.42386723  0.11051729  0.52364261     0.07600
H891        H  0.41190795  0.18421598  0.52801720     0.08800
Cu892      Cu  0.36807961  0.10627146  0.52298630     0.44200
Cu893      Cu  0.35492966  0.16633440  0.52647276     0.42000
Cu894      Cu  0.30872822  0.11853165  0.52729344     0.43900
N895        N  0.34356778  0.08036303  0.52430104    -0.34800
N896        N  0.32100961  0.08418158  0.52604582    -0.29100
C897        C  0.30999388  0.06333116  0.52707448    -0.05200
C898        C  0.32673341  0.04582033  0.52599106     0.07000
C899        C  0.34769315  0.05738920  0.52423258     0.00800
H900        H  0.29138628  0.06110301  0.52871870     0.08500
H901        H  0.36484263  0.04966310  0.52317409     0.07600
N902        N  0.30282788  0.15463130  0.52781225    -0.36300
N903        N  0.31889983  0.17122959  0.52746376    -0.28400
C904        C  0.30827727  0.19216900  0.52747116    -0.03700
C905        C  0.28439404  0.18880362  0.52797862     0.04900
C906        C  0.28169388  0.16475180  0.52807031     0.03000
H907        H  0.31744138  0.20860128  0.52644339     0.08100
H908        H  0.26547476  0.15519846  0.52828000     0.07000
O909        O  0.96028066  0.28239763  0.52514708    -0.73100
O910        O  0.03112044  0.28065799  0.52374301    -0.74100
O911        O  0.99627903  0.28135666  0.56012655    -0.62700
O912        O  0.99483163  0.28213552  0.48870950    -0.71100
O913        O  0.99571412  0.32082069  0.49016536    -0.70700
O914        O  0.99698803  0.32005785  0.55921469    -0.61900
O915        O  0.03096889  0.31938097  0.52413381    -0.74400
O916        O  0.96207958  0.32109347  0.52519743    -0.73200
Cu917      Cu  0.99564108  0.28011509  0.52440806     1.04600
Cu918      Cu  0.99652409  0.32151213  0.52469756     1.04300
C919        C  0.95019348  0.30231404  0.52524275     0.93100
C920        C  0.04207039  0.30009345  0.52385624     0.92200
C921        C  0.99656301  0.30104187  0.57073931     0.84400
C922        C  0.99471507  0.30198195  0.47839104     0.90700
O923        O  0.30453892  0.01010995  0.52738861    -0.73100
O924        O  0.30291848  0.93883165  0.52808363    -0.74100
O925        O  0.30400746  0.97459883  0.56341401    -0.62700
O926        O  0.30344069  0.97409885  0.49216815    -0.71100
O927        O  0.34202600  0.97314505  0.49299232    -0.70700
O928        O  0.34256798  0.97419340  0.56183044    -0.61900
O929        O  0.34151724  0.93924816  0.52819414    -0.74400
O930        O  0.34308446  0.00824059  0.52675499    -0.73200
Cu931      Cu  0.30218946  0.97447397  0.52776338     1.04600
Cu932      Cu  0.34345394  0.97369140  0.52742071     1.04300
C933        C  0.32440006  0.02022315  0.52679505     0.93100
C934        C  0.32239962  0.92800199  0.52855463     0.92200
C935        C  0.32381406  0.97421884  0.57365696     0.84400
C936        C  0.32301860  0.97353232  0.48155015     0.90700
N937        N  0.17743692  0.08195986  0.02255359    -0.27400
N938        N  0.15480462  0.07828445  0.02294131    -0.35300
C939        C  0.15054191  0.05539207  0.02336400     0.00900
C940        C  0.17147034  0.04367209  0.02327353     0.06900
C941        C  0.18838744  0.06102555  0.02277761    -0.06200
H942        H  0.13330554  0.04782881  0.02389243     0.07600
H943        H  0.20705290  0.05864380  0.02274698     0.08800
Cu944      Cu  0.13022013  0.10401645  0.02328630     0.44200
Cu945      Cu  0.18962833  0.11628736  0.02224728     0.42000
Cu946      Cu  0.14262683  0.16378659  0.02353985     0.43900
N947        N  0.10466999  0.12878996  0.02352863    -0.34800
N948        N  0.10844078  0.15149004  0.02358835    -0.29100
C949        C  0.08763990  0.16256499  0.02385297    -0.05200
C950        C  0.07026300  0.14568252  0.02392515     0.07000
C951        C  0.08181967  0.12461622  0.02373120     0.00800
H952        H  0.08535867  0.18130414  0.02406858     0.08500
H953        H  0.07417794  0.10735944  0.02381411     0.07600
N954        N  0.17866685  0.16886860  0.02435731    -0.36300
N955        N  0.19491030  0.15240292  0.02363579    -0.28400
C956        C  0.21595366  0.16261291  0.02465715    -0.03700
C957        C  0.21297972  0.18654769  0.02608924     0.04900
C958        C  0.18912748  0.18982530  0.02599761     0.03000
H959        H  0.23224623  0.15316683  0.02485743     0.08100
H960        H  0.17998625  0.20630900  0.02692296     0.07000
N961        N  0.38716138  0.29510872  0.02360732    -0.27400
N962        N  0.39066048  0.31766080  0.02067968    -0.35300
C963        C  0.41348541  0.32212441  0.02076032     0.00900
C964        C  0.42529997  0.30139593  0.02381892     0.06900
C965        C  0.40808593  0.28441506  0.02550385    -0.06200
H966        H  0.42093605  0.33938075  0.01907161     0.07600
H967        H  0.41055364  0.26592310  0.02839728     0.08800
Cu968      Cu  0.36453321  0.34189086  0.01848252     0.44200
Cu969      Cu  0.35307028  0.28273254  0.02607158     0.42000
Cu970      Cu  0.30567861  0.32959763  0.02984207     0.43900
N971        N  0.33975095  0.36747495  0.02087398    -0.34800
N972        N  0.31757703  0.36380134  0.02550763    -0.29100
C973        C  0.30675134  0.38473519  0.02719981    -0.05200
C974        C  0.32324354  0.40211008  0.02351675     0.07000
C975        C  0.34381012  0.39039256  0.01958104     0.00800
H976        H  0.28856591  0.38712059  0.03140483     0.08500
H977        H  0.36077282  0.39799576  0.01658118     0.07600
N978        N  0.30082651  0.29339130  0.03141721    -0.36300
N979        N  0.31724961  0.27720126  0.02956506    -0.28400
C980        C  0.30716715  0.25602726  0.03002309    -0.03700
C981        C  0.28337202  0.25880693  0.03247881     0.04900
C982        C  0.28002375  0.28274718  0.03325568     0.03000
H983        H  0.31653844  0.23972384  0.02846063     0.08100
H984        H  0.26357073  0.29187195  0.03407478     0.07000
N985        N  0.17652479  0.97602572  0.13639209    -0.27400
N986        N  0.15400959  0.97838824  0.13261613    -0.35300
C987        C  0.14988103  0.97877925  0.10968031     0.00900
C988        C  0.17076188  0.97651158  0.09810123     0.06900
C989        C  0.18750362  0.97485723  0.11554299    -0.06200
H990        H  0.13272481  0.97999066  0.10199061     0.07600
H991        H  0.20602372  0.97241498  0.11327965     0.08800
Cu992      Cu  0.12918593  0.97891223  0.15823149     0.44200
Cu993      Cu  0.18871450  0.97368541  0.17059736     0.42000
Cu994      Cu  0.14123778  0.97352218  0.21758523     0.43900
N995        N  0.10340987  0.97632846  0.18276394    -0.34800
N996        N  0.10709000  0.97436645  0.20538684    -0.29100
C997        C  0.08626492  0.97306801  0.21633541    -0.05200
C998        C  0.06892766  0.97415649  0.19943061     0.07000
C999        C  0.08057075  0.97618493  0.17850262     0.00800
H1000       H  0.08395003  0.97143245  0.23499019     0.08500
H1001       H  0.07297273  0.97760221  0.16128003     0.07600
N1002       N  0.17716273  0.97300471  0.22297311    -0.36300
N1003       N  0.19361478  0.97280255  0.20674116    -0.28400
C1004       C  0.21451674  0.97258970  0.21731028    -0.03700
C1005       C  0.21119629  0.97260949  0.24124475     0.04900
C1006       C  0.18731345  0.97302140  0.24412212     0.03000
H1007       H  0.23093752  0.97304871  0.20813062     0.08100
H1008       H  0.17790977  0.97326622  0.26046066     0.07000
N1009       N  0.38659211  0.97719825  0.34771661    -0.27400
N1010       N  0.39036725  0.97779098  0.37039643    -0.35300
C1011       C  0.41319910  0.97833988  0.37463563     0.00900
C1012       C  0.42482863  0.97802867  0.35364326     0.06900
C1013       C  0.40744224  0.97731013  0.33670270    -0.06200
H1014       H  0.42079279  0.97857298  0.39191602     0.07600
H1015       H  0.40976552  0.97667556  0.31798754     0.08800
Cu1016     Cu  0.36484797  0.97681178  0.39508449     0.44200
Cu1017     Cu  0.35215365  0.97611206  0.33581537     0.42000
Cu1018     Cu  0.30533284  0.97339252  0.38375477     0.43900
N1019       N  0.34079109  0.97476861  0.42115745    -0.34800
N1020       N  0.31814606  0.97336856  0.41780370    -0.29100
C1021       C  0.30755010  0.97260678  0.43886645    -0.05200
C1022       C  0.32470328  0.97355005  0.45596612     0.07000
C1023       C  0.34541712  0.97488115  0.44398576     0.00800
H1024       H  0.28895128  0.97159215  0.44150839     0.08500
H1025       H  0.36272965  0.97602715  0.45132310     0.07600
N1026       N  0.29978757  0.97568547  0.34778252    -0.36300
N1027       N  0.31593248  0.97642060  0.33123974    -0.28400
C1028       C  0.30529621  0.97730915  0.31034332    -0.03700
C1029       C  0.28145535  0.97731790  0.31373189     0.04900
C1030       C  0.27864410  0.97623249  0.33768276     0.03000
H1031       H  0.31432872  0.97777243  0.29379945     0.08100
H1032       H  0.26241462  0.97512965  0.34714880     0.07000
N1033       N  0.99870073  0.15337083  0.13583972    -0.27400
N1034       N  0.00477534  0.13141628  0.13257400    -0.35300
C1035       C  0.00709823  0.12723142  0.10975251     0.00900
C1036       C  0.00230933  0.14752529  0.09775194     0.06900
C1037       C  0.99710110  0.16396263  0.11480767    -0.06200
H1038       H  0.01110601  0.11031008  0.10238483     0.07600
H1039       H  0.99168620  0.18184491  0.11211432     0.08800
Cu1040     Cu  0.00675486  0.10712263  0.15869581     0.44200
Cu1041     Cu  0.99208784  0.16513250  0.16958862     0.42000
Cu1042     Cu  0.99329245  0.11880749  0.21745002     0.43900
N1043       N  0.00335045  0.08132536  0.18316829    -0.34800
N1044       N  0.99822582  0.08483852  0.20532710    -0.29100
C1045       C  0.99625971  0.06385851  0.21598174    -0.05200
C1046       C  0.00020082  0.04661912  0.19937462     0.07000
C1047       C  0.00459102  0.05843306  0.17891965     0.00800
H1048       H  0.99169349  0.06135930  0.23411450     0.08500
H1049       H  0.00803086  0.05092615  0.16194140     0.07600
N1050       N  0.98998898  0.15484021  0.22212490    -0.36300
N1051       N  0.98935900  0.17087670  0.20544283    -0.28400
C1052       C  0.98810309  0.19211400  0.21535760    -0.03700
C1053       C  0.98786762  0.18950166  0.23936851     0.04900
C1054       C  0.98917633  0.16562421  0.24296068     0.03000
H1055       H  0.98842648  0.20830789  0.20567985     0.08100
H1056       H  0.98986825  0.15668260  0.25956833     0.07000
N1057       N  0.99202328  0.29822905  0.41451416    -0.27400
N1058       N  0.98952709  0.32079359  0.41826058    -0.35300
C1059       C  0.99007743  0.32505543  0.44120017     0.00900
C1060       C  0.99299810  0.30415483  0.45281421     0.06900
C1061       C  0.99409754  0.28731498  0.43536055    -0.06200
H1062       H  0.98868442  0.34226018  0.44886920     0.07600
H1063       H  0.99656714  0.26873550  0.43761224     0.08800
Cu1064     Cu  0.98686925  0.34505465  0.39210301     0.44200
Cu1065     Cu  0.99301085  0.28608591  0.38017442     0.42000
Cu1066     Cu  0.99298986  0.33267084  0.33211254     0.43900
N1067       N  0.98875781  0.37052399  0.36710567    -0.34800
N1068       N  0.99149047  0.36685930  0.34454520    -0.29100
C1069       C  0.99357115  0.38778110  0.33375086    -0.05200
C1070       C  0.99215422  0.40510836  0.35069106     0.07000
C1071       C  0.98906688  0.39340385  0.37144059     0.00800
H1072       H  0.99644856  0.39014460  0.31525283     0.08500
H1073       H  0.98770947  0.40095827  0.38869284     0.07600
N1074       N  0.99297812  0.29647777  0.32743642    -0.36300
N1075       N  0.99303284  0.28040508  0.34411221    -0.28400
C1076       C  0.99272938  0.25915913  0.33414229    -0.03700
C1077       C  0.99258895  0.26180027  0.31013133     0.04900
C1078       C  0.99258438  0.28570059  0.30656937     0.03000
H1079       H  0.99211953  0.24296584  0.34380846     0.08100
H1080       H  0.99239837  0.29467403  0.28996516     0.07000
O1081       O  0.99630988  0.93947311  0.22075943    -0.73100
O1082       O  0.99800510  0.01056490  0.22082694    -0.74100
O1083       O  0.96172250  0.97584409  0.22026482    -0.62700
O1084       O  0.03284695  0.97420511  0.22107570    -0.71100
O1085       O  0.03192793  0.97373698  0.18237668    -0.70700
O1086       O  0.96344228  0.97642692  0.18159003    -0.61900
O1087       O  0.99913142  0.00950985  0.18213381    -0.74400
O1088       O  0.99613609  0.94055733  0.18205047    -0.73200
Cu1089     Cu  0.99722723  0.97500925  0.22228455     1.04600
Cu1090     Cu  0.99768854  0.97504205  0.18088521     1.04300
C1091       C  0.99558157  0.92900262  0.20104197     0.93100
C1092       C  0.99897876  0.02106095  0.20113890     0.92200
C1093       C  0.95159636  0.97639243  0.20035549     0.84400
C1094       C  0.04340040  0.97387832  0.20139064     0.90700
O1095       O  0.19309850  0.97031031  0.99121413    -0.73100
O1096       O  0.19257153  0.97372823  0.06229747    -0.74100
O1097       O  0.19252990  0.93635023  0.02857938    -0.62700
O1098       O  0.19306029  0.00756702  0.02503048    -0.71100
O1099       O  0.15448295  0.00654300  0.02423541    -0.70700
O1100       O  0.15395600  0.93779661  0.02903511    -0.61900
O1101       O  0.15400283  0.97458831  0.06085633    -0.74400
O1102       O  0.15450750  0.96996386  0.99209967    -0.73200
Cu1103     Cu  0.19435547  0.97194542  0.02675411     1.04600
Cu1104     Cu  0.15308181  0.97219782  0.02649435     1.04300
C1105       C  0.17349011  0.96979977  0.98062980     0.93100
C1106       C  0.17283676  0.97486790  0.07258397     0.92200
C1107       C  0.17278261  0.92608383  0.02984526     0.84400
C1108       C  0.17341706  0.01808696  0.02414720     0.90700
O1109       O  0.00009700  0.16870445  0.06152727    -0.73100
O1110       O  0.99806756  0.16806421  0.99045378    -0.74100
O1111       O  0.96375694  0.16903638  0.02684915    -0.62700
O1112       O  0.03462225  0.16780264  0.02503394    -0.71100
O1113       O  0.03297660  0.12910654  0.02455029    -0.70700
O1114       O  0.96430000  0.13032945  0.02826698    -0.61900
O1115       O  0.99672661  0.12937724  0.99185823    -0.74400
O1116       O  0.00068717  0.12997740  0.06080375    -0.73200
Cu1117     Cu  0.99917733  0.16992168  0.02594796     1.04600
Cu1118     Cu  0.99864627  0.12850912  0.02636771     1.04300
C1119       C  0.00092814  0.14908339  0.07218701     0.93100
C1120       C  0.99681533  0.14828575  0.98013879     0.92200
C1121       C  0.95303373  0.14950385  0.02798821     0.84400
C1122       C  0.04478900  0.14792116  0.02448336     0.90700
N1123       N  0.17536885  0.47290584  0.41766881    -0.27400
N1124       N  0.15292825  0.46945104  0.42106657    -0.35300
C1125       C  0.14850570  0.46898127  0.44399314     0.00900
C1126       C  0.16911353  0.47216119  0.45598167     0.06900
C1127       C  0.18596935  0.47456476  0.43872973    -0.06200
H1128       H  0.13137399  0.46659652  0.45142709     0.07600
H1129       H  0.20437294  0.47754495  0.44127816     0.08800
Cu1130     Cu  0.12873449  0.46638064  0.39468101     0.44200
Cu1131     Cu  0.18822150  0.47536348  0.38355229     0.42000
Cu1132     Cu  0.14209516  0.47418557  0.33543028     0.43900
N1133       N  0.10356469  0.46774691  0.36911182    -0.34800
N1134       N  0.10769127  0.47122606  0.34673919    -0.29100
C1135       C  0.08705916  0.47316773  0.33542500    -0.05200
C1136       C  0.06933776  0.47084807  0.35179952     0.07000
C1137       C  0.08061621  0.46737022  0.37278427     0.00800
H1138       H  0.08513587  0.47671449  0.31698776     0.08500
H1139       H  0.07268145  0.46549581  0.38979482     0.07600
N1140       N  0.17815393  0.47580223  0.33083098    -0.36300
N1141       N  0.19425876  0.47610443  0.34743730    -0.28400
C1142       C  0.21539484  0.47640976  0.33728823    -0.03700
C1143       C  0.21256957  0.47650916  0.31326711     0.04900
C1144       C  0.18872943  0.47599945  0.30990371     0.03000
H1145       H  0.23168312  0.47646606  0.34675144     0.08100
H1146       H  0.17961776  0.47513285  0.29341293     0.07000
N1147       N  0.38891553  0.47109568  0.20668258    -0.27400
N1148       N  0.39269717  0.47045897  0.18399725    -0.35300
C1149       C  0.41555530  0.47078907  0.17987610     0.00900
C1150       C  0.42709085  0.47164062  0.20094842     0.06900
C1151       C  0.40969293  0.47182459  0.21778740    -0.06200
H1152       H  0.42322423  0.47060482  0.16263925     0.07600
H1153       H  0.41193350  0.47266982  0.23650768     0.08800
Cu1154     Cu  0.36714347  0.46959664  0.15911180     0.44200
Cu1155     Cu  0.35477806  0.47132812  0.21897280     0.42000
Cu1156     Cu  0.30764769  0.47246793  0.17184090     0.43900
N1157       N  0.34225829  0.46976018  0.13353619    -0.34800
N1158       N  0.31969533  0.47111932  0.13747036    -0.29100
C1159       C  0.30850819  0.47156724  0.11668299    -0.05200
C1160       C  0.32514815  0.47041280  0.09911125     0.07000
C1161       C  0.34621155  0.46927470  0.11056564     0.00800
H1162       H  0.28986250  0.47292918  0.11453649     0.08500
H1163       H  0.36333094  0.46853359  0.10276060     0.07600
N1164       N  0.30243650  0.47221164  0.20800896    -0.36300
N1165       N  0.31881579  0.47158664  0.22432487    -0.28400
C1166       C  0.30858028  0.47137858  0.24542861    -0.03700
C1167       C  0.28467322  0.47180323  0.24244586     0.04900
C1168       C  0.28149017  0.47248561  0.21848803     0.03000
H1169       H  0.31799706  0.47147734  0.26176592     0.08100
H1170       H  0.26507324  0.47300013  0.20926672     0.07000
O1171       O  0.99537357  0.44180240  0.36830198    -0.73100
O1172       O  0.00052556  0.51034373  0.36996166    -0.74100
O1173       O  0.96385119  0.47873760  0.36987475    -0.62700
O1174       O  0.03231091  0.47333138  0.36866383    -0.71100
O1175       O  0.03332608  0.47473103  0.33001191    -0.70700
O1176       O  0.96199457  0.47919734  0.33122041    -0.61900
O1177       O  0.99971349  0.51246208  0.33130206    -0.74400
O1178       O  0.99542983  0.44140943  0.32958881    -0.73200
Cu1179     Cu  0.99808978  0.47603079  0.37031719     1.04600
Cu1180     Cu  0.99762661  0.47699593  0.32895028     1.04300
C1181       C  0.99448810  0.43060659  0.34911874     0.93100
C1182       C  0.00049361  0.52239809  0.35129408     0.92200
C1183       C  0.95191957  0.47976035  0.35117435     0.84400
C1184       C  0.04383372  0.47312076  0.34969302     0.90700
O1185       O  0.34136508  0.47125507  0.06154690    -0.73100
O1186       O  0.33992588  0.47627436  0.99278405    -0.74100
O1187       O  0.34090416  0.50788950  0.02940226    -0.62700
O1188       O  0.34038715  0.43921716  0.02469238    -0.71100
O1189       O  0.30184333  0.43826405  0.02640270    -0.70700
O1190       O  0.30233276  0.50950513  0.02945724    -0.61900
O1191       O  0.30133066  0.47573515  0.99235092    -0.74400
O1192       O  0.30283326  0.47234133  0.06351681    -0.73200
Cu1193     Cu  0.34179022  0.47359674  0.02710149     1.04600
Cu1194     Cu  0.30053409  0.47391778  0.02797786     1.04300
C1195       C  0.32271608  0.47131594  0.07355706     0.93100
C1196       C  0.32079753  0.47713611  0.98158239     0.92200
C1197       C  0.32214320  0.51971272  0.02975220     0.84400
C1198       C  0.32143453  0.42770290  0.02495428     0.90700
O1199       O  0.15155217  0.47318094  0.56229391    -0.73100
O1200       O  0.15203888  0.47291621  0.49324998    -0.74100
O1201       O  0.15201660  0.43848550  0.52793114    -0.62700
O1202       O  0.15215410  0.50768158  0.52807750    -0.71100
O1203       O  0.19074550  0.50849276  0.52864493    -0.70700
O1204       O  0.19060283  0.43744527  0.52785103    -0.61900
O1205       O  0.19060393  0.47324244  0.49233269    -0.74400
O1206       O  0.19010312  0.47285906  0.56393894    -0.73200
Cu1207     Cu  0.15077851  0.47306861  0.52782878     1.04600
Cu1208     Cu  0.19203748  0.47299480  0.52816106     1.04300
C1209       C  0.17028093  0.47324201  0.57417623     0.93100
C1210       C  0.17096954  0.47291255  0.48169697     0.92200
C1211       C  0.17098327  0.42691964  0.52790973     0.84400
C1212       C  0.17117123  0.51911737  0.52892302     0.90700
O1213       O  0.46316464  0.17084973  0.52697024    -0.73100
O1214       O  0.53420676  0.17084950  0.52540330    -0.74100
O1215       O  0.49782510  0.17125587  0.49069944    -0.62700
O1216       O  0.49962430  0.17048260  0.56197667    -0.71100
O1217       O  0.49984225  0.13178870  0.56042791    -0.70700
O1218       O  0.49758023  0.13253473  0.49156761    -0.61900
O1219       O  0.53302565  0.13213889  0.52484391    -0.74400
O1220       O  0.46452482  0.13214318  0.52683794    -0.73200
Cu1221     Cu  0.49871109  0.17242053  0.52632947     1.04600
Cu1222     Cu  0.49875531  0.13100896  0.52595015     1.04300
C1223       C  0.45284995  0.15103964  0.52678785     0.93100
C1224       C  0.54460053  0.15108537  0.52466632     0.92200
C1225       C  0.49724253  0.15158176  0.48010675     0.84400
C1226       C  0.50009243  0.15062869  0.57224363     0.90700
O1227       O  0.49559344  0.51035244  0.18500107    -0.73100
O1228       O  0.50111597  0.44161317  0.18398572    -0.74100
O1229       O  0.46422003  0.47336084  0.18426120    -0.62700
O1230       O  0.53258823  0.47870563  0.18474815    -0.71100
O1231       O  0.53381237  0.47753036  0.22342559    -0.70700
O1232       O  0.46285067  0.47354432  0.22295214    -0.61900
O1233       O  0.50034850  0.43988146  0.22265104    -0.74400
O1234       O  0.49633062  0.51112215  0.22370013    -0.73200
Cu1235     Cu  0.49840810  0.47601408  0.18335688     1.04600
Cu1236     Cu  0.49833656  0.47547984  0.22474291     1.04300
C1237       C  0.49510694  0.52175820  0.20408007     0.93100
C1238       C  0.50140847  0.42972120  0.20276596     0.92200
C1239       C  0.45255265  0.47285435  0.20313585     0.84400
C1240       C  0.54417408  0.47890197  0.20370212     0.90700
N1241       N  0.67613065  0.48064304  0.13731012    -0.27400
N1242       N  0.65359419  0.48308810  0.13376207    -0.35300
C1243       C  0.64917437  0.48296979  0.11088263     0.00900
C1244       C  0.66989473  0.48030016  0.09909164     0.06900
C1245       C  0.68684404  0.47892644  0.11635767    -0.06200
H1246       H  0.63193845  0.48424966  0.10338484     0.07600
H1247       H  0.70533101  0.47640817  0.11391885     0.08800
Cu1248     Cu  0.62923071  0.48478510  0.15971804     0.44200
Cu1249     Cu  0.68865188  0.47918231  0.17143318     0.42000
Cu1250     Cu  0.64209150  0.48040728  0.21921755     0.43900
N1251       N  0.60388998  0.48327717  0.18470915    -0.34800
N1252       N  0.60780861  0.48143967  0.20730697    -0.29100
C1253       C  0.58708998  0.47989210  0.21842538    -0.05200
C1254       C  0.56960585  0.48075039  0.20165407     0.07000
C1255       C  0.58102976  0.48291057  0.18064291     0.00800
H1256       H  0.58495612  0.47786718  0.23706418     0.08500
H1257       H  0.57329017  0.48375830  0.16344612     0.07600
N1258       N  0.67814413  0.47975732  0.22400261    -0.36300
N1259       N  0.69427521  0.47918316  0.20746366    -0.28400
C1260       C  0.71539180  0.47907653  0.21760315    -0.03700
C1261       C  0.71257552  0.47949586  0.24160373     0.04900
C1262       C  0.68872998  0.48006682  0.24493499     0.03000
H1263       H  0.73160356  0.47927979  0.20805443     0.08100
H1264       H  0.67964153  0.48056734  0.26144611     0.07000
N1265       N  0.81934238  0.48392382  0.41836125    -0.27400
N1266       N  0.84197465  0.48417518  0.42219837    -0.35300
C1267       C  0.84602269  0.48359513  0.44515776     0.00900
C1268       C  0.82497413  0.48292062  0.45665960     0.06900
C1269       C  0.80823004  0.48314860  0.43915396    -0.06200
H1270       H  0.86318626  0.48330982  0.45291698     0.07600
H1271       H  0.78955438  0.48244528  0.44132623     0.08800
Cu1272     Cu  0.86691479  0.48436267  0.39654278     0.44200
Cu1273     Cu  0.80689876  0.48400921  0.38420501     0.42000
Cu1274     Cu  0.85368688  0.48284264  0.33689525     0.43900
N1275       N  0.89228660  0.48343323  0.37130757    -0.34800
N1276       N  0.88811635  0.48274531  0.34868102    -0.29100
C1277       C  0.90870513  0.48161042  0.33724931    -0.05200
C1278       C  0.92644332  0.48154892  0.35377819     0.07000
C1279       C  0.91524036  0.48275252  0.37504272     0.00800
H1280       H  0.91059130  0.48057210  0.31850338     0.08500
H1281       H  0.92321334  0.48281411  0.39215275     0.07600
N1282       N  0.81761098  0.48316973  0.33174318    -0.36300
N1283       N  0.80139557  0.48372048  0.34819492    -0.28400
C1284       C  0.78032035  0.48379570  0.33797696    -0.03700
C1285       C  0.78322423  0.48339019  0.31399051     0.04900
C1286       C  0.80709998  0.48283605  0.31075864     0.03000
H1287       H  0.76407684  0.48361299  0.34747113     0.08100
H1288       H  0.81625041  0.48239504  0.29428051     0.07000
O1289       O  0.65260689  0.47814369  0.06213380    -0.73100
O1290       O  0.65155829  0.47328719  0.99342490    -0.74100
O1291       O  0.65195475  0.44102530  0.03027484    -0.62700
O1292       O  0.65249716  0.51025210  0.02533633    -0.71100
O1293       O  0.69107623  0.51095796  0.02573287    -0.70700
O1294       O  0.69049594  0.43967917  0.02904353    -0.61900
O1295       O  0.69011416  0.47376689  0.99175706    -0.74400
O1296       O  0.69118122  0.47707220  0.06295956    -0.73200
Cu1297     Cu  0.65098949  0.47566135  0.02781193     1.04600
Cu1298     Cu  0.69223910  0.47532365  0.02734758     1.04300
C1299       C  0.67161866  0.47838777  0.07355986     0.93100
C1300       C  0.67028578  0.47309390  0.98156185     0.92200
C1301       C  0.67081987  0.42928344  0.03032933     0.84400
C1302       C  0.67153924  0.52167308  0.02490861     0.90700
N1303       N  0.81991210  0.08635846  0.02599580    -0.27400
N1304       N  0.84210224  0.08263165  0.03050149    -0.35300
C1305       C  0.84627394  0.05971685  0.03123927     0.00900
C1306       C  0.82573797  0.04806346  0.02708346     0.06900
C1307       C  0.80914677  0.06545751  0.02386933    -0.06200
H1308       H  0.86326489  0.05209244  0.03410283     0.07600
H1309       H  0.79093518  0.06312402  0.01973498     0.08800
Cu1310     Cu  0.86661100  0.10825250  0.03354111     0.44200
Cu1311     Cu  0.80807878  0.12062521  0.02248906     0.42000
Cu1312     Cu  0.85560003  0.16732214  0.02278685     0.43900
N1313       N  0.89269309  0.13234230  0.03145952    -0.34800
N1314       N  0.88949420  0.15468424  0.02693600    -0.29100
C1315       C  0.91057543  0.16508554  0.02541265    -0.05200
C1316       C  0.92751897  0.14812236  0.02908698     0.07000
C1317       C  0.91543006  0.12772746  0.03284521     0.00800
H1318       H  0.91335022  0.18332121  0.02141356     0.08500
H1319       H  0.92264146  0.11053181  0.03582743     0.07600
N1320       N  0.81958588  0.17305673  0.02194604    -0.36300
N1321       N  0.80316057  0.15679177  0.02199155    -0.28400
C1322       C  0.78223420  0.16729071  0.02251868    -0.03700
C1323       C  0.78539953  0.19124493  0.02267121     0.04900
C1324       C  0.80934020  0.19420450  0.02236599     0.03000
H1325       H  0.76582929  0.15806178  0.02286290     0.08100
H1326       H  0.81876371  0.21050823  0.02320198     0.07000
N1327       N  0.67515188  0.36527775  0.03123347    -0.27400
N1328       N  0.65263336  0.36880217  0.03386025    -0.35300
C1329       C  0.64823578  0.39173237  0.03431389     0.00900
C1330       C  0.66895028  0.40362064  0.03185451     0.06900
C1331       C  0.68585945  0.38629747  0.02998655    -0.06200
H1332       H  0.63101385  0.39921989  0.03577857     0.07600
H1333       H  0.70432732  0.38877565  0.02738857     0.08800
Cu1334     Cu  0.62836959  0.34256552  0.03486444     0.44200
Cu1335     Cu  0.68753288  0.33097481  0.02879294     0.42000
Cu1336     Cu  0.64096864  0.28286393  0.02896586     0.43900
N1337       N  0.60287410  0.31765174  0.03237252    -0.34800
N1338       N  0.60665388  0.29505519  0.03005588    -0.29100
C1339       C  0.58582738  0.28411880  0.02826221    -0.05200
C1340       C  0.56841240  0.30099053  0.02940916     0.07000
C1341       C  0.58001858  0.32187128  0.03201529     0.00800
H1342       H  0.58355930  0.26551453  0.02600369     0.08500
H1343       H  0.57238630  0.33908684  0.03337580     0.07600
N1344       N  0.67715130  0.27817626  0.02826718    -0.36300
N1345       N  0.69321552  0.29481181  0.02796008    -0.28400
C1346       C  0.71436808  0.28473457  0.02736947    -0.03700
C1347       C  0.71171397  0.26070386  0.02752329     0.04900
C1348       C  0.68784457  0.25725944  0.02796051     0.03000
H1349       H  0.73058505  0.29429469  0.02714514     0.08100
H1350       H  0.67874663  0.24075508  0.02759392     0.07000
N1351       N  0.81951459  0.97446978  0.13310681    -0.27400
N1352       N  0.84217083  0.97413950  0.12953787    -0.35300
C1353       C  0.84652425  0.97375890  0.10665518     0.00900
C1354       C  0.82564661  0.97393896  0.09481829     0.06900
C1355       C  0.80866203  0.97438901  0.11211451    -0.06200
H1356       H  0.86379742  0.97374001  0.09916267     0.07600
H1357       H  0.79001269  0.97485065  0.10964660     0.08800
Cu1358     Cu  0.86667841  0.97517158  0.15542607     0.44200
Cu1359     Cu  0.80710338  0.97515103  0.16740149     0.42000
Cu1360     Cu  0.85369145  0.97489706  0.21519996     0.43900
N1361       N  0.89192468  0.97633186  0.18058661    -0.34800
N1362       N  0.88792313  0.97596892  0.20323920    -0.29100
C1363       C  0.90858959  0.97619199  0.21456771    -0.05200
C1364       C  0.92614231  0.97676935  0.19790769     0.07000
C1365       C  0.91481628  0.97687837  0.17670622     0.00800
H1366       H  0.91065884  0.97572627  0.23332045     0.08500
H1367       H  0.92265959  0.97697041  0.15954735     0.07600
N1368       N  0.81766176  0.97412101  0.22008367    -0.36300
N1369       N  0.80151022  0.97448161  0.20352945    -0.28400
C1370       C  0.78041802  0.97395751  0.21368627    -0.03700
C1371       C  0.78324575  0.97299442  0.23766950     0.04900
C1372       C  0.80711801  0.97326747  0.24102829     0.03000
H1373       H  0.76413856  0.97399360  0.20421163     0.08100
H1374       H  0.81628925  0.97332747  0.25750537     0.07000
N1375       N  0.67718832  0.97198517  0.41321955    -0.27400
N1376       N  0.65468814  0.97009315  0.41725411    -0.35300
C1377       C  0.65074971  0.97059573  0.44019039     0.00900
C1378       C  0.67172602  0.97287152  0.45159962     0.06900
C1379       C  0.68837238  0.97364935  0.43398044    -0.06200
H1380       H  0.63365116  0.96958903  0.44800739     0.07600
H1381       H  0.70697303  0.97559410  0.43605861     0.08800
Cu1382     Cu  0.62951864  0.96804892  0.39206729     0.44200
Cu1383     Cu  0.68872341  0.97278675  0.37867498     0.42000
Cu1384     Cu  0.64011446  0.97264350  0.33244203     0.43900
N1385       N  0.60295587  0.96940937  0.36830163    -0.34800
N1386       N  0.60606137  0.97141765  0.34559485    -0.29100
C1387       C  0.58491152  0.97309888  0.33528499    -0.05200
C1388       C  0.56799464  0.97221959  0.35265850     0.07000
C1389       C  0.58021587  0.96981376  0.37322274     0.00800
H1390       H  0.58208218  0.97526675  0.31675239     0.08500
H1391       H  0.57311061  0.96887795  0.39067574     0.07600
N1392       N  0.67619441  0.97334876  0.32634975    -0.36300
N1393       N  0.69287130  0.97322554  0.34239593    -0.28400
C1394       C  0.71365481  0.97325368  0.33162802    -0.03700
C1395       C  0.71016676  0.97357500  0.30773651     0.04900
C1396       C  0.68617681  0.97355951  0.30507701     0.03000
H1397       H  0.73019748  0.97315837  0.34063502     0.08100
H1398       H  0.67655937  0.97313459  0.28886355     0.07000
O1399       O  0.84281380  0.97462046  0.05773233    -0.73100
O1400       O  0.84367967  0.97857028  0.98893714    -0.74100
O1401       O  0.84293015  0.01098621  0.02539192    -0.62700
O1402       O  0.84348846  0.94204002  0.02127518    -0.71100
O1403       O  0.80491338  0.94080905  0.02159956    -0.70700
O1404       O  0.80436078  0.01200196  0.02414442    -0.61900
O1405       O  0.80512824  0.97777871  0.98722947    -0.74400
O1406       O  0.80423523  0.97517581  0.05853096    -0.73200
Cu1407     Cu  0.84438257  0.97655192  0.02334324     1.04600
Cu1408     Cu  0.80312163  0.97641301  0.02284504     1.04300
C1409       C  0.82382355  0.97453403  0.06918412     0.93100
C1410       C  0.82493995  0.97873746  0.97705949     0.92200
C1411       C  0.82396310  0.02251743  0.02539136     0.84400
C1412       C  0.82461504  0.93038189  0.02090443     0.90700
N1413       N  0.67761198  0.08576410  0.52397154    -0.27400
N1414       N  0.65505225  0.08203592  0.52215623    -0.35300
C1415       C  0.65092171  0.05912619  0.52120470     0.00900
C1416       C  0.67185486  0.04744080  0.52240517     0.06900
C1417       C  0.68863763  0.06485620  0.52416325    -0.06200
H1418       H  0.63374964  0.05150842  0.51989563     0.07600
H1419       H  0.70724775  0.06252377  0.52569653     0.08800
Cu1420     Cu  0.63032220  0.10773016  0.52140901     0.44200
Cu1421     Cu  0.68956973  0.12012758  0.52618629     0.42000
Cu1422     Cu  0.64221639  0.16743872  0.52380094     0.43900
N1423       N  0.60454686  0.13236802  0.52191525    -0.34800
N1424       N  0.60817289  0.15506618  0.52294517    -0.29100
C1425       C  0.58733554  0.16602494  0.52390139    -0.05200
C1426       C  0.57006107  0.14906292  0.52348574     0.07000
C1427       C  0.58172104  0.12807939  0.52217457     0.00800
H1428       H  0.58497651  0.18471546  0.52513727     0.08500
H1429       H  0.57416726  0.11078811  0.52177503     0.07600
N1430       N  0.67810670  0.17264665  0.52561509    -0.36300
N1431       N  0.69446506  0.15633204  0.52696414    -0.28400
C1432       C  0.71536277  0.16682364  0.52822064    -0.03700
C1433       C  0.71212002  0.19075203  0.52758468     0.04900
C1434       C  0.68832575  0.19375682  0.52577527     0.03000
H1435       H  0.73177520  0.15761055  0.52890904     0.08100
H1436       H  0.67903736  0.21015423  0.52477018     0.07000
N1437       N  0.88657512  0.29872148  0.52591736    -0.27400
N1438       N  0.89027405  0.32117068  0.52248603    -0.35300
C1439       C  0.91312253  0.32536951  0.52193301     0.00900
C1440       C  0.92472484  0.30455292  0.52499610     0.06900
C1441       C  0.90739816  0.28780616  0.52745704    -0.06200
H1442       H  0.92073275  0.34244776  0.51937599     0.07600
H1443       H  0.90972881  0.26927674  0.53022353     0.08800
Cu1444     Cu  0.86452911  0.34552758  0.51892705     0.44200
Cu1445     Cu  0.85244811  0.28651754  0.52796921     0.42000
Cu1446     Cu  0.80514078  0.33344471  0.52461868     0.43900
N1447       N  0.83979096  0.37115917  0.51906452    -0.34800
N1448       N  0.81731093  0.36751152  0.52177462    -0.29100
C1449       C  0.80642920  0.38841065  0.52311185    -0.05200
C1450       C  0.82321979  0.40573818  0.52119480     0.07000
C1451       C  0.84401022  0.39405791  0.51858688     0.00800
H1452       H  0.78799678  0.39077452  0.52606494     0.08500
H1453       H  0.86119967  0.40164384  0.51734737     0.07600
N1454       N  0.80013334  0.29742022  0.52573257    -0.36300
N1455       N  0.81648704  0.28112549  0.52720841    -0.28400
C1456       C  0.80620185  0.26004139  0.52748205    -0.03700
C1457       C  0.78238187  0.26309225  0.52582982     0.04900
C1458       C  0.77919954  0.28700111  0.52487872     0.03000
H1459       H  0.81545932  0.24362668  0.52847812     0.08100
H1460       H  0.76283042  0.29627306  0.52398369     0.07000
O1461       O  0.65487047  0.01029777  0.52222410    -0.73100
O1462       O  0.65411241  0.94149007  0.52406869    -0.74100
O1463       O  0.65420325  0.97689214  0.55761871    -0.62700
O1464       O  0.65487254  0.97481438  0.48873726    -0.71100
O1465       O  0.69344611  0.97481001  0.48770456    -0.70700
O1466       O  0.69276601  0.97596217  0.55904027    -0.61900
O1467       O  0.69266575  0.93973244  0.52388594    -0.74400
O1468       O  0.69344079  0.01118989  0.52299151    -0.73200
Cu1469     Cu  0.65338734  0.97590506  0.52314244     1.04600
Cu1470     Cu  0.69464198  0.97542696  0.52341921     1.04300
C1471       C  0.67381869  0.02180435  0.52251729     0.93100
C1472       C  0.67281939  0.92956868  0.52410806     0.92200
C1473       C  0.67302381  0.97668297  0.56936723     0.84400
C1474       C  0.67379022  0.97432778  0.47717606     0.90700
O1475       O  0.80143924  0.47416985  0.56314300    -0.73100
O1476       O  0.80276271  0.48022037  0.49223727    -0.74100
O1477       O  0.80181236  0.44175069  0.52467500    -0.62700
O1478       O  0.80246908  0.51272146  0.53081354    -0.71100
O1479       O  0.84101448  0.51095586  0.53197581    -0.70700
O1480       O  0.84041086  0.44256666  0.52463113    -0.61900
O1481       O  0.84132147  0.48032485  0.49407515    -0.74400
O1482       O  0.84002174  0.47295293  0.56265054    -0.73200
Cu1483     Cu  0.80057874  0.47724781  0.52769711     1.04600
Cu1484     Cu  0.84184835  0.47671009  0.52837624     1.04300
C1485       C  0.82089666  0.47240737  0.57387481     0.93100
C1486       C  0.82261837  0.48115487  0.48216010     0.92200
C1487       C  0.82141878  0.43118878  0.52357814     0.84400
C1488       C  0.82227406  0.52282988  0.53232198     0.90700
C1489       C  0.72716492  0.22876644  0.51310156    -0.26500
C1490       C  0.73015464  0.20922234  0.52755787    -0.14500
C1491       C  0.75028876  0.20754449  0.54157176     0.36100
C1492       C  0.76726608  0.22514228  0.54033971    -0.25900
C1493       C  0.76429089  0.24467945  0.52587671    -0.15100
C1494       C  0.74407882  0.24643303  0.51196072     0.37200
N1495       N  0.74103904  0.26579308  0.49629984    -0.89400
H1496       H  0.71179769  0.22999498  0.50221847     0.18300
H1497       H  0.78262928  0.22391365  0.55122763     0.18300
N1498       N  0.75313675  0.18836482  0.55748450    -0.88400
H1499       H  0.72520837  0.26448531  0.48741280     0.35700
H1500       H  0.75412798  0.26476997  0.48367915     0.40800
H1501       H  0.73993890  0.18958785  0.56999067     0.40400
H1502       H  0.76888777  0.18973655  0.56648595     0.35300
C1503       C  0.74362684  0.98444368  0.25127784    -0.26500
C1504       C  0.76458349  0.97259306  0.25562844    -0.14500
C1505       C  0.76723908  0.96059253  0.27696512     0.36100
C1506       C  0.74931940  0.96114662  0.29360976    -0.25900
C1507       C  0.72844622  0.97319942  0.28936127    -0.15100
C1508       C  0.72567122  0.98492855  0.26789308     0.37200
N1509       N  0.70502178  0.99807194  0.26313950    -0.89400
H1510       H  0.74129907  0.99388148  0.23506702     0.18300
H1511       H  0.75165979  0.95173034  0.30983230     0.18300
N1512       N  0.78776163  0.94719102  0.28158552    -0.88400
H1513       H  0.69751763  0.99147302  0.24789619     0.35700
H1514       H  0.70983253  0.01539640  0.26001148     0.40800
H1515       H  0.78276947  0.92987196  0.28453182     0.40400
H1516       H  0.79532598  0.95354010  0.29688847     0.35300
C1517       C  0.74631044  0.20447268  0.03621212    -0.26500
C1518       C  0.76693532  0.20941112  0.02405018    -0.14500
C1519       C  0.76931500  0.23139350  0.01322032     0.36100
C1520       C  0.75122761  0.24784235  0.01472549    -0.25900
C1521       C  0.73051131  0.24282401  0.02671518    -0.15100
C1522       C  0.72824853  0.22092336  0.03775682     0.37200
N1523       N  0.70798090  0.21548585  0.05119163    -0.89400
H1524       H  0.74426799  0.18783830  0.04495191     0.18300
H1525       H  0.75326834  0.26447638  0.00598737     0.18300
N1526       N  0.78969296  0.23687801  0.99997564    -0.88400
H1527       H  0.70047091  0.20041008  0.04422372     0.35700
H1528       H  0.71325243  0.21178246  0.06826652     0.40800
H1529       H  0.79718114  0.25188770  0.00710870     0.40400
H1530       H  0.78455680  0.24071232  0.98289043     0.35300
C1531       C  0.72658092  0.49272567  0.28054848    -0.26500
C1532       C  0.73087573  0.48020990  0.25992817    -0.14500
C1533       C  0.75242656  0.46864805  0.25723222     0.36100
C1534       C  0.76925545  0.47025214  0.27498160    -0.25900
C1535       C  0.76495505  0.48274967  0.29561602    -0.15100
C1536       C  0.74337924  0.49427960  0.29832425     0.37200
N1537       N  0.73875467  0.50802039  0.31878631    -0.89400
H1538       H  0.71019282  0.50182544  0.28261575     0.18300
H1539       H  0.78564283  0.46115160  0.27291595     0.18300
N1540       N  0.75696742  0.45478098  0.23683651    -0.88400
H1541       H  0.72202186  0.51518203  0.31811833     0.35700
H1542       H  0.75035546  0.52204747  0.31875907     0.40800
H1543       H  0.74531788  0.44078710  0.23696379     0.40400
H1544       H  0.77367276  0.44756868  0.23751911     0.35300
C1545       C  0.24606501  0.48558349  0.25660410    -0.26500
C1546       C  0.26637177  0.47260468  0.26076663    -0.14500
C1547       C  0.26891523  0.46088783  0.28232809     0.36100
C1548       C  0.25136271  0.46285410  0.29933077    -0.25900
C1549       C  0.23104819  0.47581077  0.29513189    -0.15100
C1550       C  0.22850012  0.48749372  0.27356821     0.37200
N1551       N  0.20839497  0.50175545  0.26915472    -0.89400
H1552       H  0.24412087  0.49480372  0.24022205     0.18300
H1553       H  0.25327182  0.45365567  0.31573115     0.18300
N1554       N  0.28894663  0.44650779  0.28668878    -0.88400
H1555       H  0.20914161  0.50904898  0.25244439     0.35700
H1556       H  0.20880785  0.51567350  0.28093677     0.40800
H1557       H  0.28842699  0.43259725  0.27489558     0.40400
H1558       H  0.28818402  0.43920420  0.30339025     0.35300
C1559       C  0.97899550  0.24709178  0.27153156    -0.26500
C1560       C  0.99170885  0.24319836  0.29209698    -0.14500
C1561       C  0.00320483  0.22161830  0.29517830     0.36100
C1562       C  0.00126406  0.20429473  0.27793002    -0.25900
C1563       C  0.98852188  0.20814224  0.25738203    -0.15100
C1564       C  0.97710615  0.22977086  0.25423353     0.37200
N1565       N  0.96319030  0.23392340  0.23380488    -0.89400
H1566       H  0.97000224  0.26354297  0.26917834     0.18300
H1567       H  0.01035695  0.18790305  0.28028205     0.18300
N1568       N  0.01737687  0.21756214  0.31544943    -0.88400
H1569       H  0.95610328  0.25073361  0.23412695     0.35700
H1570       H  0.94918218  0.22231179  0.23428120     0.40800
H1571       H  0.03133918  0.22922533  0.31477598     0.40400
H1572       H  0.02452510  0.20078162  0.31509410     0.35300
C1573       C  0.22480084  0.98615452  0.28026028    -0.26500
C1574       C  0.22916113  0.97329821  0.25985032    -0.14500
C1575       C  0.25059310  0.96148722  0.25747236     0.36100
C1576       C  0.26743551  0.96347282  0.27512972    -0.25900
C1577       C  0.26317333  0.97644385  0.29545439    -0.15100
C1578       C  0.24158896  0.98795741  0.29804376     0.37200
N1579       N  0.23697593  0.00187943  0.31838769    -0.89400
H1580       H  0.20842086  0.99532046  0.28211680     0.18300
H1581       H  0.28379918  0.95427812  0.27327634     0.18300
N1582       N  0.25497662  0.94698703  0.23748498    -0.88400
H1583       H  0.22024508  0.00905523  0.31762073     0.35700
H1584       H  0.24859509  0.01588912  0.31825443     0.40800
H1585       H  0.24315193  0.93314260  0.23800503     0.40400
H1586       H  0.27159019  0.93959219  0.23839302     0.35300
C1587       C  0.26907856  0.22069875  0.01737746    -0.26500
C1588       C  0.26540465  0.24017473  0.03178374    -0.14500
C1589       C  0.24457087  0.24170789  0.04476227     0.36100
C1590       C  0.22764079  0.22410520  0.04245434    -0.25900
C1591       C  0.23126096  0.20475906  0.02784468    -0.15100
C1592       C  0.25220378  0.20310847  0.01509730     0.37200
N1593       N  0.25599053  0.18399386  0.99929854    -0.89400
H1594       H  0.28491806  0.21953408  0.00722531     0.18300
H1595       H  0.21169667  0.22527471  0.05245216     0.18300
N1596       N  0.24085687  0.26082124  0.06057365    -0.88400
H1597       H  0.27230675  0.18532176  0.99135695     0.35700
H1598       H  0.24364257  0.18532594  0.98596870     0.40800
H1599       H  0.25339116  0.25960052  0.07373709     0.40400
H1600       H  0.22465185  0.25935704  0.06873553     0.35300
C1601       C  0.25041029  0.24566241  0.53538032    -0.26500
C1602       C  0.22907803  0.24011860  0.52476051    -0.14500
C1603       C  0.22614368  0.21760173  0.51521079     0.36100
C1604       C  0.24425946  0.20118776  0.51667021    -0.25900
C1605       C  0.26561476  0.20674297  0.52724515    -0.15100
C1606       C  0.26854533  0.22927417  0.53679755     0.37200
N1607       N  0.28960200  0.23549124  0.54860239    -0.89400
H1608       H  0.25297681  0.26273113  0.54308277     0.18300
H1609       H  0.24169876  0.18413529  0.50893375     0.18300
N1610       N  0.20513970  0.21147431  0.50326932    -0.88400
H1611       H  0.28540766  0.24027249  0.56570287     0.35700
H1612       H  0.29664798  0.25007918  0.54025671     0.40800
H1613       H  0.19801209  0.19688403  0.51152994     0.40400
H1614       H  0.20942509  0.20673179  0.48617802     0.35300
C1615       C  0.48262129  0.20764989  0.27778531    -0.26500
C1616       C  0.50114423  0.20850288  0.29368272    -0.14500
C1617       C  0.51772271  0.22659476  0.29188818     0.36100
C1618       C  0.51527508  0.24354541  0.27450189    -0.25900
C1619       C  0.49672413  0.24274300  0.25860069    -0.15100
C1620       C  0.48013939  0.22461054  0.26041206     0.37200
N1621       N  0.46009608  0.22351673  0.24559525    -0.89400
H1622       H  0.46973010  0.19392138  0.27916089     0.18300
H1623       H  0.52816384  0.25727995  0.27318805     0.18300
N1624       N  0.53763394  0.22770730  0.30688200    -0.88400
H1625       H  0.46549653  0.22098903  0.22842507     0.35700
H1626       H  0.45117081  0.23939322  0.24673429     0.40800
H1627       H  0.54668282  0.21193512  0.30561589     0.40400
H1628       H  0.53200761  0.22985904  0.32406921     0.35300
C1629       C  0.24591797  0.74290263  0.50829907    -0.26500
C1630       C  0.26618559  0.74032615  0.52170923    -0.14500
C1631       C  0.26891487  0.72009753  0.53547871     0.36100
C1632       C  0.25162720  0.70278396  0.53534916    -0.25900
C1633       C  0.23127329  0.70540627  0.52205420    -0.15100
C1634       C  0.22856922  0.72563639  0.50825410     0.37200
N1635       N  0.20855158  0.72847456  0.49365037    -0.89400
H1636       H  0.24364677  0.75826689  0.49751073     0.18300
H1637       H  0.25386748  0.68751821  0.54627683     0.18300
N1638       N  0.28873464  0.71746811  0.55039670    -0.88400
H1639       H  0.21423124  0.73024655  0.47642331     0.35700
H1640       H  0.20021628  0.74397848  0.49844555     0.40800
H1641       H  0.29723417  0.70201195  0.54582123     0.40400
H1642       H  0.28280501  0.71575964  0.56756310     0.35300
C1643       C  0.99425030  0.72934455  0.30001571    -0.26500
C1644       C  0.00730533  0.70902494  0.29600505    -0.14500
C1645       C  0.01899022  0.70636685  0.27446626     0.36100
C1646       C  0.01672133  0.72371375  0.25725546    -0.25900
C1647       C  0.00349297  0.74391671  0.26122811    -0.15100
C1648       C  0.99206883  0.74672322  0.28286187     0.37200
N1649       N  0.97768712  0.76680600  0.28713310    -0.89400
H1650       H  0.98506281  0.73138906  0.31637497     0.18300
H1651       H  0.02572877  0.72165899  0.24078636     0.18300
N1652       N  0.03350366  0.68636889  0.27027230    -0.88400
H1653       H  0.97068074  0.76627188  0.30394274     0.35700
H1654       H  0.96363577  0.76603189  0.27555950     0.40800
H1655       H  0.04738650  0.68713236  0.28204117     0.40400
H1656       H  0.04073739  0.68704625  0.25355339     0.35300
C1657       C  0.24440955  0.70143682  0.01728056    -0.26500
C1658       C  0.26541395  0.70603652  0.02894144    -0.14500
C1659       C  0.26809866  0.72745357  0.04084324     0.36100
C1660       C  0.24999454  0.74393950  0.04029494    -0.25900
C1661       C  0.22903577  0.73940539  0.02854032    -0.15100
C1662       C  0.22624383  0.71788200  0.01684382     0.37200
N1663       N  0.20528070  0.71297427  0.00407899    -0.89400
H1664       H  0.24230721  0.68508621  0.00803067     0.18300
H1665       H  0.25209511  0.76027545  0.04956852     0.18300
N1666       N  0.28887519  0.73219926  0.05397502    -0.88400
H1667       H  0.20596686  0.69631798  0.99664467     0.35700
H1668       H  0.20433661  0.72481801  0.99024345     0.40800
H1669       H  0.28958000  0.72021542  0.06771805     0.40400
H1670       H  0.28811559  0.74877383  0.06155789     0.35300
C1671       C  0.49188589  0.72957746  0.25581073    -0.26500
C1672       C  0.50477308  0.70909944  0.25961959    -0.14500
C1673       C  0.51744720  0.70671693  0.28055175     0.36100
C1674       C  0.51663682  0.72446185  0.29739630    -0.25900
C1675       C  0.50357825  0.74482686  0.29371444    -0.15100
C1676       C  0.49105145  0.74732943  0.27267615     0.37200
N1677       N  0.47674433  0.76740601  0.26868355    -0.89400
H1678       H  0.48188040  0.73160209  0.23991151     0.18300
H1679       H  0.52658242  0.72240148  0.31332872     0.18300
N1680       N  0.53171785  0.68662264  0.28454557    -0.88400
H1681       H  0.45966207  0.76173215  0.26605681     0.35700
H1682       H  0.48239315  0.77547306  0.25333604     0.40800
H1683       H  0.52611836  0.67862465  0.29992644     0.40400
H1684       H  0.54883284  0.69227665  0.28708261     0.35300
C1685       C  0.24703251  0.46297589  0.75695687    -0.26500
C1686       C  0.22675537  0.47597959  0.76115941    -0.14500
C1687       C  0.22434531  0.48786407  0.78261456     0.36100
C1688       C  0.24195100  0.48594300  0.79956426    -0.25900
C1689       C  0.26218973  0.47283208  0.79542010    -0.15100
C1690       C  0.26466956  0.46110127  0.77387590     0.37200
N1691       N  0.28475424  0.44683184  0.76943095    -0.89400
H1692       H  0.24887796  0.45369771  0.74059473     0.18300
H1693       H  0.24010347  0.49526139  0.81590069     0.18300
N1694       N  0.20437789  0.50234863  0.78691422    -0.88400
H1695       H  0.28395886  0.43954584  0.75272201     0.35700
H1696       H  0.28436484  0.43290791  0.78120658     0.40800
H1697       H  0.20488246  0.51615360  0.77498849     0.40400
H1698       H  0.20524599  0.50980392  0.80353824     0.35300
C1699       C  0.25317706  0.96167696  0.79881333    -0.26500
C1700       C  0.23317039  0.97521201  0.79488967    -0.14500
C1701       C  0.23124444  0.98786882  0.77385958     0.36100
C1702       C  0.24895128  0.98638860  0.75709776    -0.25900
C1703       C  0.26888310  0.97277913  0.76098543    -0.15100
C1704       C  0.27093975  0.96030078  0.78208379     0.37200
N1705       N  0.29062181  0.94556598  0.78630684    -0.89400
H1706       H  0.25488281  0.95166212  0.81475235     0.18300
H1707       H  0.24725607  0.99633106  0.74110705     0.18300
N1708       N  0.21173231  0.00284053  0.76968075    -0.88400
H1709       H  0.28458749  0.92855372  0.78900685     0.35700
H1710       H  0.29867635  0.95117523  0.80165930     0.40800
H1711       H  0.20362967  0.99739518  0.75429193     0.40400
H1712       H  0.21795143  0.01979555  0.76707537     0.35300
C1713       C  0.00658980  0.20433481  0.77313747    -0.26500
C1714       C  0.99471147  0.20850116  0.79413146    -0.14500
C1715       C  0.98257573  0.22975783  0.79700344     0.36100
C1716       C  0.98268511  0.24627370  0.77887731    -0.25900
C1717       C  0.99446248  0.24205719  0.75782243    -0.15100
C1718       C  0.00683029  0.22091629  0.75507600     0.37200
N1719       N  0.02011061  0.21653682  0.73429534    -0.89400
H1720       H  0.01621229  0.18822362  0.77097288     0.18300
H1721       H  0.97303302  0.26236246  0.78105262     0.18300
N1722       N  0.96966340  0.23432526  0.81797964    -0.88400
H1723       H  0.02799658  0.20010527  0.73499473     0.35700
H1724       H  0.03357003  0.22878714  0.73375351     0.40800
H1725       H  0.95606661  0.22225321  0.81874710     0.40400
H1726       H  0.96197671  0.25086002  0.81737966     0.35300
C1727       C  0.48901054  0.22221065  0.79809915    -0.26500
C1728       C  0.49935315  0.24389899  0.79346372    -0.14500
C1729       C  0.50999215  0.24749243  0.77157841     0.36100
C1730       C  0.50988859  0.22957677  0.75484750    -0.25900
C1731       C  0.49946856  0.20788067  0.75946037    -0.15100
C1732       C  0.48880416  0.20434471  0.78137311     0.37200
N1733       N  0.47699303  0.18298635  0.78657534    -0.89400
H1734       H  0.48045873  0.21918888  0.81465710     0.18300
H1735       H  0.51841136  0.23261539  0.73828118     0.18300
N1736       N  0.52155457  0.26900158  0.76642322    -0.88400
H1737       H  0.45966215  0.18691205  0.79045571     0.35700
H1738       H  0.48460647  0.17574122  0.80148662     0.40800
H1739       H  0.51385539  0.27617863  0.75152322     0.40400
H1740       H  0.53892220  0.26527190  0.76252215     0.35300
C1741       C  0.98301053  0.74660162  0.77628728    -0.26500
C1742       C  0.99461953  0.74146830  0.79722912    -0.14500
C1743       C  0.00406797  0.71893328  0.80051919     0.36100
C1744       C  0.00156703  0.70210474  0.78287902    -0.25900
C1745       C  0.99017651  0.70730286  0.76183601    -0.15100
C1746       C  0.98044429  0.72972638  0.75867536     0.37200
N1747       N  0.96753951  0.73516917  0.73788742    -0.89400
H1748       H  0.97543056  0.76373828  0.77383199     0.18300
H1749       H  0.00926297  0.68502318  0.78531941     0.18300
N1750       N  0.01681366  0.71335997  0.82137502    -0.88400
H1751       H  0.96163752  0.75243046  0.73827241     0.35700
H1752       H  0.95274097  0.72457228  0.73771352     0.40800
H1753       H  0.03179936  0.72367686  0.82154352     0.40400
H1754       H  0.02240221  0.69599102  0.82111710     0.35300
C1755       C  0.77268271  0.96764093  0.76896692    -0.26500
C1756       C  0.76813495  0.97893999  0.79023081    -0.14500
C1757       C  0.74613241  0.98936271  0.79361360     0.36100
C1758       C  0.72917470  0.98794491  0.77605163    -0.25900
C1759       C  0.73365380  0.97648114  0.75486622    -0.15100
C1760       C  0.75569392  0.96617690  0.75142073     0.37200
N1761       N  0.76072925  0.95344432  0.73053277    -0.89400
H1762       H  0.78934018  0.95928639  0.76609232     0.18300
H1763       H  0.71251084  0.99628327  0.77894162     0.18300
N1764       N  0.74104202  0.00202905  0.81453038    -0.88400
H1765       H  0.76511316  0.93636112  0.73518095     0.35700
H1766       H  0.77525253  0.96106685  0.72263675     0.40800
H1767       H  0.72647701  0.99440200  0.82234852     0.40400
H1768       H  0.73670072  0.01913747  0.80993086     0.35300
C1769       C  0.72569692  0.72951998  0.01957917    -0.26500
C1770       C  0.73061437  0.70873926  0.03162418    -0.14500
C1771       C  0.75279345  0.70582834  0.04184631     0.36100
C1772       C  0.76962139  0.72347909  0.03936422    -0.25900
C1773       C  0.76476519  0.74421611  0.02721986    -0.15100
C1774       C  0.74254201  0.74716520  0.01705311     0.37200
N1775       N  0.73730303  0.76770128  0.00363725    -0.89400
H1776       H  0.70880331  0.73175206  0.01150228     0.18300
H1777       H  0.78651269  0.72121249  0.04743372     0.18300
N1778       N  0.75802274  0.68524125  0.05518531    -0.88400
H1779       H  0.72019183  0.76720049  0.99747413     0.35700
H1780       H  0.74807352  0.76757538  0.98894308     0.40800
H1781       H  0.74717691  0.68525900  0.06981747     0.40400
H1782       H  0.77510705  0.68576459  0.06143792     0.35300
C1783       C  0.74454860  0.46008943  0.75839661    -0.26500
C1784       C  0.76261990  0.47642291  0.76065535    -0.14500
C1785       C  0.76295554  0.49129504  0.78037862     0.36100
C1786       C  0.74565245  0.48924518  0.79739929    -0.25900
C1787       C  0.72765813  0.47288860  0.79518645    -0.15100
C1788       C  0.72717620  0.45800359  0.77556932     0.37200
N1789       N  0.70936162  0.44054630  0.77339510    -0.89400
H1790       H  0.74423899  0.44860984  0.74337393     0.18300
H1791       H  0.74596703  0.50095892  0.81224564     0.18300
N1792       N  0.77988064  0.50942703  0.78309823    -0.88400
H1793       H  0.71147764  0.43105577  0.75795821     0.35700
H1794       H  0.71152415  0.42871225  0.78711929     0.40800
H1795       H  0.77983033  0.51978941  0.76808579     0.40400
H1796       H  0.79628153  0.50194369  0.78519958     0.35300
C1797       C  0.74344939  0.70343730  0.52773033    -0.26500
C1798       C  0.76572202  0.70968569  0.53569786    -0.14500
C1799       C  0.76952268  0.73285832  0.54331396     0.36100
C1800       C  0.75119489  0.74914333  0.54234324    -0.25900
C1801       C  0.72897118  0.74289408  0.53423710    -0.15100
C1802       C  0.72515546  0.71970772  0.52671412     0.37200
N1803       N  0.70301142  0.71282517  0.51732289    -0.89400
H1804       H  0.74038026  0.68586306  0.52153023     0.18300
H1805       H  0.75423289  0.76678427  0.54839516     0.18300
N1806       N  0.79174703  0.73975773  0.55248587    -0.88400
H1807       H  0.70301582  0.69511567  0.51290461     0.35700
H1808       H  0.70050955  0.72205170  0.50179728     0.40800
H1809       H  0.79447213  0.73042912  0.56790552     0.40400
H1810       H  0.79170619  0.75744523  0.55702951     0.35300
C1811       C  0.50654447  0.72693615  0.75963477    -0.26500
C1812       C  0.48977132  0.74467225  0.76099699    -0.14500
C1813       C  0.47397090  0.74473840  0.77991836     0.36100
C1814       C  0.47528696  0.72718767  0.79686676    -0.25900
C1815       C  0.49195060  0.70934934  0.79539667    -0.15100
C1816       C  0.50796618  0.70949182  0.77665812     0.37200
N1817       N  0.52651263  0.69287424  0.77498018    -0.89400
H1818       H  0.51895488  0.72686676  0.74540734     0.18300
H1819       H  0.46291608  0.72727323  0.81112790     0.18300
N1820       N  0.45581746  0.76174954  0.78191878    -0.88400
H1821       H  0.51950887  0.67626953  0.77258156     0.35700
H1822       H  0.53598712  0.69315591  0.79056038     0.40800
H1823       H  0.44612269  0.76174267  0.76648700     0.40400
H1824       H  0.46325587  0.77819155  0.78425080     0.35300
loop_ 
_geom_bond_atom_site_label_1 
_geom_bond_atom_site_label_2 
_geom_bond_distance 
_geom_bond_site_symmetry_2 
_ccdc_geom_bond_type 
N1            N2   1.319       .  A
N1            C5   1.354       .  A
N1           Cu9   2.091       .  S
N2            C3   1.336       .  A
N2           Cu8   2.047       .  S
C3            C4   1.378       .  A
C3            H6   1.082       .  S
C4            C5   1.391       .  A
C4          C784   1.472       .  S
C5            H7   1.082       .  S
Cu8          N11   2.047       .  S
Cu9          N19   2.095       .  S
Cu10         N12   2.078       .  S
Cu10         N18   2.082       .  S
N11          N12   1.319       .  A
N11          C15   1.336       .  A
N12          C13   1.352       .  A
C13          C14   1.389       .  A
C13          H16   1.082       .  S
C14          C15   1.378       .  A
C14         C347   1.467       .  S
C15          H17   1.082       .  S
N18          N19   1.327       .  A
N18          C22   1.345       .  A
N19          C20   1.346       .  A
C20          C21   1.384       .  A
C20          H23   1.082       .  S
C21          C22   1.382       .  A
C21        C1812   1.480       .  S
C22          H24   1.081       .  S
N25          N26   1.318       .  A
N25          C29   1.354       .  A
N25         Cu33   2.085       .  S
N26          C27   1.335       .  A
N26         Cu32   2.045       .  S
C27          C28   1.379       .  A
C27          H30   1.082       .  S
C28          C29   1.391       .  A
C28         C535   1.471       .  S
C29          H31   1.082       .  S
Cu32         N35   2.045       .  S
Cu33         N43   2.089       .  S
Cu34         N36   2.091       .  S
Cu34         N42   2.095       .  S
N35          N36   1.319       .  A
N35          C39   1.335       .  A
N36          C37   1.355       .  A
C37          C38   1.392       .  A
C37          H40   1.082       .  S
C38          C39   1.377       .  A
C38         C595   1.472       .  S
C39          H41   1.082       .  S
N42          N43   1.328       .  A
N42          C46   1.347       .  A
N43          C44   1.345       .  A
C44          C45   1.382       .  A
C44          H47   1.081       .  S
C45          C46   1.384       .  A
C45        C1815   1.481       .  S
C46          H48   1.082       .  S
N49          N50   1.319       .  A
N49          C53   1.354       .  A
N49         Cu57   2.086       .  S
N50          C51   1.335       .  A
N50         Cu56   2.045       .  S
C51          C52   1.378       .  A
C51          H54   1.082       .  S
C52          C53   1.391       .  A
C52        C1488   1.471       .  S
C53          H55   1.082       .  S
Cu56         N59   2.045       .  S
Cu57         N67   2.091       .  S
Cu58         N60   2.097       .  S
Cu58         N66   2.102       .  S
N59          N60   1.319       .  A
N59          C63   1.336       .  A
N60          C61   1.355       .  A
C61          C62   1.393       .  A
C61          H64   1.082       .  S
C62          C63   1.378       .  A
C62         C767   1.475       .  S
C63          H65   1.082       .  S
N66          N67   1.327       .  A
N66          C70   1.348       .  A
N67          C68   1.345       .  A
C68          C69   1.386       .  A
C68          H71   1.082       .  S
C69          C70   1.389       .  A
C69        C1798   1.493       .  S
C70          H72   1.081       .  S
N73          N74   1.318       .  A
N73          C77   1.354       .  A
N73         Cu81   2.087       .  S
N74          C75   1.336       .  A
N74         Cu80   2.046       .  S
C75          C76   1.379       .  A
C75          H78   1.082       .  S
C76          C77   1.391       .  A
C76        C1472   1.472       .  S
C77          H79   1.082       .  S
Cu80         N83   2.045       .  S
Cu81         N91   2.091       .  S
Cu82         N84   2.086       .  S
Cu82         N90   2.092       .  S
N83          N84   1.319       .  A
N83          C87   1.335       .  A
N84          C85   1.353       .  A
C85          C86   1.390       .  A
C85          H88   1.082       .  S
C86          C87   1.377       .  A
C86         C782   1.469       .  S
C87          H89   1.082       .  S
N90          N91   1.327       .  A
N90          C94   1.346       .  A
N91          C92   1.345       .  A
C92          C93   1.386       .  A
C92          H95   1.082       .  S
C93          C94   1.388       .  A
C93        C1801   1.491       .  S
C94          H96   1.081       .  S
N97          N98   1.319       .  A
N97         C101   1.353       .  A
N97        Cu105   2.083       .  S
N98          C99   1.336       .  A
N98        Cu104   2.048       .  S
C99         C100   1.379       .  A
C99         H102   1.082       .  S
C100        C101   1.390       .  A
C100        C522   1.471       .  S
C101        H103   1.082       .  S
Cu104       N107   2.047       .  S
Cu105       N115   2.087       .  S
Cu106       N108   2.090       .  S
Cu106       N114   2.095       .  S
N107        N108   1.320       .  A
N107        C111   1.336       .  A
N108        C109   1.354       .  A
C109        C110   1.391       .  A
C109        H112   1.082       .  S
C110        C111   1.378       .  A
C110       C1485   1.471       .  S
C111        H113   1.082       .  S
N114        N115   1.327       .  A
N114        C118   1.347       .  A
N115        C116   1.344       .  A
C116        C117   1.383       .  A
C116        H119   1.080       .  S
C117        C118   1.385       .  A
C117       C1784   1.483       .  S
C118        H120   1.082       .  S
N121        N122   1.319       .  A
N121        C125   1.354       .  A
N121       Cu129   2.086       .  S
N122        C123   1.337       .  A
N122       Cu128   2.052       .  S
C123        C124   1.379       .  A
C123        H126   1.082       .  S
C124        C125   1.390       .  A
C124       C1300   1.472       .  S
C125        H127   1.082       .  S
Cu128       N131   2.051       .  S
Cu129       N139   2.091       .  S
Cu130       N132   2.094       .  S
Cu130       N138   2.097       .  S
N131        N132   1.319       .  A
N131        C135   1.336       .  A
N132        C133   1.356       .  A
C133        C134   1.393       .  A
C133        H136   1.082       .  S
C134        C135   1.379       .  A
C134        C534   1.476       .  S
C135        H137   1.082       .  S
N138        N139   1.328       .  A
N138        C142   1.347       .  A
N139        C140   1.346       .  A
C140        C141   1.382       .  A
C140        H143   1.082       .  S
C141        C142   1.383       .  A
C141       C1787   1.481       .  S
C142        H144   1.082       .  S
N145        N146   1.319       .  A
N145        C149   1.354       .  A
N145       Cu153   2.090       .  S
N146        C147   1.338       .  A
N146       Cu152   2.051       .  S
C147        C148   1.379       .  A
C147        H150   1.082       .  S
C148        C149   1.391       .  A
C148       C1412   1.473       .  S
C149        H151   1.082       .  S
Cu152       N155   2.051       .  S
Cu153       N163   2.095       .  S
Cu154       N156   2.092       .  S
Cu154       N162   2.096       .  S
N155        N156   1.319       .  A
N155        C159   1.336       .  A
N156        C157   1.355       .  A
C157        C158   1.392       .  A
C157        H160   1.082       .  S
C158        C159   1.378       .  A
C158        C707   1.474       .  S
C159        H161   1.082       .  S
N162        N163   1.327       .  A
N162        C166   1.346       .  A
N163        C164   1.347       .  A
C164        C165   1.386       .  A
C164        H167   1.081       .  S
C165        C166   1.386       .  A
C165       C1773   1.489       .  S
C166        H168   1.082       .  S
N169        N170   1.319       .  A
N169        C173   1.355       .  A
N169       Cu177   2.098       .  S
N170        C171   1.337       .  A
N170       Cu176   2.047       .  S
C171        C172   1.379       .  A
C171        H174   1.082       .  S
C172        C173   1.394       .  A
C172       C1302   1.476       .  S
C173        H175   1.082       .  S
Cu176       N179   2.047       .  S
Cu177       N187   2.102       .  S
Cu178       N180   2.093       .  S
Cu178       N186   2.097       .  S
N179        N180   1.319       .  A
N179        C183   1.335       .  A
N180        C181   1.356       .  A
C181        C182   1.393       .  A
C181        H184   1.082       .  S
C182        C183   1.378       .  A
C182        C598   1.474       .  S
C183        H185   1.082       .  S
N186        N187   1.328       .  A
N186        C190   1.347       .  A
N187        C188   1.347       .  A
C188        C189   1.386       .  A
C188        H191   1.082       .  S
C189        C190   1.385       .  A
C189       C1770   1.489       .  S
C190        H192   1.082       .  S
N193        N194   1.318       .  A
N193        C197   1.354       .  A
N193       Cu201   2.085       .  S
N194        C195   1.336       .  A
N194       Cu200   2.045       .  S
C195        C196   1.379       .  A
C195        H198   1.082       .  S
C196        C197   1.391       .  A
C196       C1410   1.472       .  S
C197        H199   1.082       .  S
Cu200       N203   2.045       .  S
Cu201       N211   2.089       .  S
Cu202       N204   2.088       .  S
Cu202       N210   2.093       .  S
N203        N204   1.319       .  A
N203        C207   1.335       .  A
N204        C205   1.354       .  A
C205        C206   1.392       .  A
C205        H208   1.082       .  S
C206        C207   1.377       .  A
C206        C457   1.471       .  S
C207        H209   1.082       .  S
N210        N211   1.327       .  A
N210        C214   1.346       .  A
N211        C212   1.344       .  A
C212        C213   1.385       .  A
C212        H215   1.081       .  S
C213        C214   1.386       .  A
C213       C1756   1.487       .  S
C214        H216   1.082       .  S
N217        N218   1.319       .  A
N217        C221   1.353       .  A
N217       Cu225   2.084       .  S
N218        C219   1.337       .  A
N218       Cu224   2.051       .  S
C219        C220   1.380       .  A
C219        H222   1.082       .  S
C220        C221   1.390       .  A
C220       C1473   1.472       .  S
C221        H223   1.082       .  S
Cu224       N227   2.050       .  S
Cu225       N235   2.089       .  S
Cu226       N228   2.082       .  S
Cu226       N234   2.087       .  S
N227        N228   1.319       .  A
N227        C231   1.334       .  A
N228        C229   1.354       .  A
C229        C230   1.390       .  A
C229        H232   1.082       .  S
C230        C231   1.378       .  A
C230        C349   1.470       .  S
C231        H233   1.082       .  S
N234        N235   1.326       .  A
N234        C238   1.345       .  A
N235        C236   1.345       .  A
C236        C237   1.386       .  A
C236        H239   1.081       .  S
C237        C238   1.385       .  A
C237       C1759   1.487       .  S
C238        H240   1.082       .  S
N241        N242   1.319       .  A
N241        C245   1.354       .  A
N241       Cu249   2.083       .  S
N242        C243   1.336       .  A
N242       Cu248   2.056       .  S
C243        C244   1.381       .  A
C243        H246   1.082       .  S
C244        C245   1.390       .  A
C244        C460   1.473       .  S
C245        H247   1.082       .  S
Cu248       N251   2.055       .  S
Cu249       N259   2.087   1_455  S
Cu250       N252   2.076       .  S
Cu250       N258   2.080   1_455  S
N251        N252   1.319       .  A
N251        C255   1.337       .  A
N252        C253   1.352       .  A
C253        C254   1.388       .  A
C253        H256   1.082   1_455  S
C254        C255   1.380       .  A
C254        C706   1.469       .  S
C255        H257   1.082       .  S
N258        N259   1.326       .  A
N258        C262   1.344       .  A
N259        C260   1.345       .  A
C260        C261   1.385       .  A
C260        H263   1.082       .  S
C261        C262   1.384       .  A
C261       C1742   1.484       .  S
C262        H264   1.081       .  S
N265        N266   1.319       .  A
N265        C269   1.354       .  A
N265       Cu273   2.083       .  S
N266        C267   1.335       .  A
N266       Cu272   2.047       .  S
C267        C268   1.378       .  A
C267        H270   1.082   1_655  S
C268        C269   1.391       .  A
C268        C519   1.470       .  S
C269        H271   1.082       .  S
Cu272       N275   2.047       .  S
Cu273       N283   2.088       .  S
Cu274       N276   2.086       .  S
Cu274       N282   2.090       .  S
N275        N276   1.319       .  A
N275        C279   1.336   1_655  A
N276        C277   1.354       .  A
C277        C278   1.391       .  A
C277        H280   1.082       .  S
C278        C279   1.379   1_655  A
C278        C769   1.472       .  S
C279        H281   1.082       .  S
N282        N283   1.327       .  A
N282        C286   1.345       .  A
N283        C284   1.344       .  A
C284        C285   1.384       .  A
C284        H287   1.082       .  S
C285        C286   1.385       .  A
C285       C1745   1.485       .  S
C286        H288   1.081       .  S
N289        N290   1.319       .  A
N289        C293   1.354       .  A
N289       Cu297   2.090       .  S
N290        C291   1.336       .  A
N290       Cu296   2.046       .  S
C291        C292   1.379       .  A
C291        H294   1.082       .  S
C292        C293   1.392       .  A
C292       C1226   1.473       .  S
C293        H295   1.082       .  S
Cu296       N299   2.045       .  S
Cu297       N307   2.094       .  S
Cu298       N300   2.080       .  S
Cu298       N306   2.085       .  S
N299        N300   1.319       .  A
N299        C303   1.334       .  A
N300        C301   1.353       .  A
C301        C302   1.390       .  A
C301        H304   1.082       .  S
C302        C303   1.377       .  A
C302        C348   1.468       .  S
C303        H305   1.082       .  S
N306        N307   1.327       .  A
N306        C310   1.344       .  A
N307        C308   1.346       .  A
C308        C309   1.387       .  A
C308        H311   1.082       .  S
C309        C310   1.386       .  A
C309       C1731   1.489       .  S
C310        H312   1.081       .  S
N313        N314   1.319       .  A
N313        C317   1.354       .  A
N313       Cu321   2.086       .  S
N314        C315   1.337       .  A
N314       Cu320   2.050       .  S
C315        C316   1.379       .  A
C315        H318   1.082       .  S
C316        C317   1.391       .  A
C316        C536   1.473       .  S
C317        H319   1.082       .  S
Cu320       N323   2.050       .  S
Cu321       N331   2.091       .  S
Cu322       N324   2.084       .  S
Cu322       N330   2.088       .  S
N323        N324   1.319       .  A
N323        C327   1.335       .  A
N324        C325   1.355       .  A
C325        C326   1.391       .  A
C325        H328   1.082       .  S
C326        C327   1.379       .  A
C326        C860   1.471       .  S
C327        H329   1.082       .  S
N330        N331   1.327       .  A
N330        C334   1.344       .  A
N331        C332   1.346       .  A
C332        C333   1.386       .  A
C332        H335   1.081       .  S
C333        C334   1.385       .  A
C333       C1728   1.486       .  S
C334        H336   1.082       .  S
O337       Cu345   1.973       .  S
O337        C347   1.274       .  A
O338       Cu345   1.970   1_545  S
O338        C348   1.274       .  A
O339       Cu345   1.965       .  S
O339        C349   1.273       .  A
O340       Cu345   1.972       .  S
O340        C350   1.274       .  A
O341       Cu346   2.045       .  S
O341        C350   1.281       .  A
O342       Cu346   2.049       .  S
O342        C349   1.282       .  A
O343       Cu346   2.040   1_545  S
O343        C348   1.280       .  A
O344       Cu346   2.038       .  S
O344        C347   1.280       .  A
Cu345      Cu346   2.374       .  S
C350        C426   1.470       .  S
N351        N352   1.318       .  A
N351        C355   1.355       .  A
N351       Cu359   2.083       .  S
N352        C353   1.334       .  A
N352       Cu358   2.048       .  S
C353        C354   1.379       .  A
C353        H356   1.082       .  S
C354        C355   1.391       .  A
C354        C459   1.472       .  S
C355        H357   1.082       .  S
Cu358       N361   2.048       .  S
Cu359       N369   2.088       .  S
Cu360       N362   2.084       .  S
Cu360       N368   2.089       .  S
N361        N362   1.319       .  A
N361        C365   1.337       .  A
N362        C363   1.353       .  A
C363        C364   1.390       .  A
C363        H366   1.082       .  S
C364        C365   1.379       .  A
C364       C1120   1.471       .  S
C365        H367   1.082       .  S
N368        N369   1.327       .  A
N368        C372   1.346       .  A
N369        C370   1.344       .  A
C370        C371   1.384       .  A
C370        H373   1.082       .  S
C371        C372   1.386       .  A
C371       C1714   1.485       .  S
C372        H374   1.081       .  S
N375        N376   1.319       .  A
N375        C379   1.354       .  A
N375       Cu383   2.079       .  S
N376        C377   1.335       .  A
N376       Cu382   2.051       .  S
C377        C378   1.379       .  A
C377        H380   1.082       .  S
C378        C379   1.390       .  A
C378        C520   1.470       .  S
C379        H381   1.082       .  S
Cu382       N385   2.052       .  S
Cu383       N393   2.083       .  S
Cu384       N386   2.091       .  S
Cu384       N392   2.096       .  S
N385        N386   1.319       .  A
N385        C389   1.337       .  A
N386        C387   1.355       .  A
C387        C388   1.392       .  A
C387        H390   1.082       .  S
C388        C389   1.380       .  A
C388        C921   1.475       .  S
C389        H391   1.082       .  S
N392        N393   1.327       .  A
N392        C396   1.346       .  A
N393        C394   1.344       .  A
C394        C395   1.383       .  A
C394        H397   1.082       .  S
C395        C396   1.387       .  A
C395       C1717   1.487       .  S
C396        H398   1.081       .  S
N399        N400   1.319       .  A
N399        C403   1.353       .  A
N399       Cu407   2.084       .  S
N400        C401   1.335       .  A
N400       Cu406   2.044       .  S
C401        C402   1.378       .  A
C401        H404   1.082       .  S
C402        C403   1.391       .  A
C402       C1105   1.470       .  S
C403        H405   1.082       .  S
Cu406       N409   2.043       .  S
Cu407       N417   2.088       .  S
Cu408       N410   2.084       .  S
Cu408       N416   2.090       .  S
N409        N410   1.318       .  A
N409        C413   1.335       .  A
N410        C411   1.354       .  A
C411        C412   1.391       .  A
C411        H414   1.082       .  S
C412        C413   1.378       .  A
C412        C458   1.470       .  S
C413        H415   1.082       .  S
N416        N417   1.327       .  A
N416        C420   1.345       .  A
N417        C418   1.345       .  A
C418        C419   1.384       .  A
C418        H421   1.082       .  S
C419        C420   1.385       .  A
C419       C1700   1.484       .  S
C420        H422   1.081       .  S
N423        N424   1.319       .  A
N423        C427   1.353       .  A
N423       Cu431   2.084       .  S
N424        C425   1.336       .  A
N424       Cu430   2.048       .  S
C425        C426   1.379       .  A
C425        H428   1.082       .  S
C426        C427   1.390       .  A
C427        H429   1.082       .  S
Cu430       N433   2.047       .  S
Cu431       N441   2.089       .  S
Cu432       N434   2.087       .  S
Cu432       N440   2.091       .  S
N433        N434   1.319       .  A
N433        C437   1.335       .  A
N434        C435   1.355       .  A
C435        C436   1.392       .  A
C435        H438   1.082       .  S
C436        C437   1.378       .  A
C436        C935   1.472       .  S
C437        H439   1.082       .  S
N440        N441   1.327       .  A
N440        C444   1.345       .  A
N441        C442   1.346       .  A
C442        C443   1.384       .  A
C442        H445   1.082       .  S
C443        C444   1.383       .  A
C443       C1703   1.482       .  S
C444        H446   1.082       .  S
O447       Cu455   1.975   1_655  S
O447        C457   1.274       .  A
O448       Cu455   1.974       .  S
O448        C458   1.274       .  A
O449       Cu455   1.966   1_645  S
O449        C459   1.273       .  A
O450       Cu455   1.969       .  S
O450        C460   1.273       .  A
O451       Cu456   2.055       .  S
O451        C460   1.283       .  A
O452       Cu456   2.052   1_645  S
O452        C459   1.282       .  A
O453       Cu456   2.043       .  S
O453        C458   1.280       .  A
O454       Cu456   2.043   1_655  S
O454        C457   1.280       .  A
Cu455      Cu456   2.373       .  S
N461        N462   1.319       .  A
N461        C465   1.355       .  A
N461       Cu469   2.087       .  S
N462        C463   1.337       .  A
N462       Cu468   2.055       .  S
C463        C464   1.380       .  A
C463        H466   1.082       .  S
C464        C465   1.391       .  A
C464       C1209   1.475       .  S
C465        H467   1.082       .  S
Cu468       N471   2.054       .  S
Cu469       N479   2.092       .  S
Cu470       N472   2.089       .  S
Cu470       N478   2.093       .  S
N471        N472   1.319       .  A
N471        C475   1.336       .  A
N472        C473   1.355       .  A
C473        C474   1.392       .  A
C473        H476   1.082       .  S
C474        C475   1.379       .  A
C474        C521   1.474       .  S
C475        H477   1.082       .  S
N478        N479   1.328       .  A
N478        C482   1.346       .  A
N479        C480   1.346       .  A
C480        C481   1.384       .  A
C480        H483   1.082       .  S
C481        C482   1.385       .  A
C481       C1686   1.486       .  S
C482        H484   1.082       .  S
N485        N486   1.320       .  A
N485        C489   1.354       .  A
N485       Cu493   2.091       .  S
N486        C487   1.338       .  A
N486       Cu492   2.057       .  S
C487        C488   1.380       .  A
C487        H490   1.082       .  S
C488        C489   1.391       .  A
C488        C533   1.475       .  S
C489        H491   1.082       .  S
Cu492       N495   2.056       .  S
Cu493       N503   2.094       .  S
Cu494       N496   2.084       .  S
Cu494       N502   2.088       .  S
N495        N496   1.320       .  A
N495        C499   1.337       .  A
N496        C497   1.353       .  A
C497        C498   1.389       .  A
C497        H500   1.082       .  S
C498        C499   1.379       .  A
C498       C1196   1.471       .  S
C499        H501   1.082       .  S
N502        N503   1.326       .  A
N502        C506   1.346       .  A
N503        C504   1.346       .  A
C504        C505   1.386       .  A
C504        H507   1.081       .  S
C505        C506   1.385       .  A
C505       C1689   1.487       .  S
C506        H508   1.082       .  S
O509       Cu517   2.045       .  S
O509        C519   1.281       .  A
O510       Cu517   2.047       .  S
O510        C520   1.281       .  A
O511       Cu517   2.050   1_455  S
O511        C521   1.282       .  A
O512       Cu517   2.044       .  S
O512        C522   1.281       .  A
O513       Cu518   1.976       .  S
O513        C522   1.274       .  A
O514       Cu518   1.975   1_455  S
O514        C521   1.274       .  A
O515       Cu518   1.969       .  S
O515        C520   1.273       .  A
O516       Cu518   1.972       .  S
O516        C519   1.274       .  A
Cu517      Cu518   2.373       .  S
O523       Cu531   1.982       .  S
O523        C533   1.275       .  A
O524       Cu531   1.980       .  S
O524        C534   1.275       .  A
O525       Cu531   1.972       .  S
O525        C535   1.274       .  A
O526       Cu531   1.977       .  S
O526        C536   1.274       .  A
O527       Cu532   2.047       .  S
O527        C536   1.281       .  A
O528       Cu532   2.048       .  S
O528        C535   1.281       .  A
O529       Cu532   2.052       .  S
O529        C534   1.282       .  A
O530       Cu532   2.050       .  S
O530        C533   1.282       .  A
Cu531      Cu532   2.372       .  S
N537        N538   1.320       .  A
N537        C541   1.354       .  A
N537       Cu545   2.089       .  S
N538        C539   1.336       .  A
N538       Cu544   2.051       .  S
C539        C540   1.379       .  A
C539        H542   1.082       .  S
C540        C541   1.391       .  A
C540       C1237   1.472       .  S
C541        H543   1.082       .  S
Cu544       N547   2.051       .  S
Cu545       N555   2.093       .  S
Cu546       N548   2.080       .  S
Cu546       N554   2.084       .  S
N547        N548   1.319       .  A
N547        C551   1.337       .  A
N548        C549   1.352       .  A
C549        C550   1.389       .  A
C549        H552   1.082       .  S
C550        C551   1.379       .  A
C550        C596   1.469       .  S
C551        H553   1.082       .  S
N554        N555   1.327       .  A
N554        C558   1.345       .  A
N555        C556   1.345       .  A
C556        C557   1.385       .  A
C556        H559   1.081       .  S
C557        C558   1.383       .  A
C557       C1672   1.483       .  S
C558        H560   1.082       .  S
N561        N562   1.319       .  A
N561        C565   1.355       .  A
N561       Cu569   2.094       .  S
N562        C563   1.336       .  A
N562       Cu568   2.048       .  S
C563        C564   1.378       .  A
C563        H566   1.082       .  S
C564        C565   1.392       .  A
C564        C783   1.474       .  S
C565        H567   1.082       .  S
Cu568       N571   2.048       .  S
Cu569       N579   2.097       .  S
Cu570       N572   2.075       .  S
Cu570       N578   2.080       .  S
N571        N572   1.319       .  A
N571        C575   1.336       .  A
N572        C573   1.352       .  A
C573        C574   1.388       .  A
C573        H576   1.082       .  S
C574        C575   1.379       .  A
C574        C845   1.467       .  S
C575        H577   1.082       .  S
N578        N579   1.327       .  A
N578        C582   1.344       .  A
N579        C580   1.346       .  A
C580        C581   1.385       .  A
C580        H583   1.082       .  S
C581        C582   1.383       .  A
C581       C1675   1.483       .  S
C582        H584   1.082       .  S
O585       Cu593   1.977   1_556  S
O585        C595   1.275       .  A
O586       Cu593   1.980       .  S
O586        C596   1.274       .  A
O587       Cu593   1.975       .  S
O587        C597   1.274       .  A
O588       Cu593   1.978       .  S
O588        C598   1.275       .  A
O589       Cu594   2.049       .  S
O589        C598   1.281       .  A
O590       Cu594   2.045       .  S
O590        C597   1.281       .  A
O591       Cu594   2.038       .  S
O591        C596   1.280       .  A
O592       Cu594   2.043   1_556  S
O592        C595   1.280       .  A
Cu593      Cu594   2.373       .  S
C597        C626   1.471       .  S
N599        N600   1.320       .  A
N599        C603   1.353       .  A
N599       Cu607   2.084       .  S
N600        C601   1.337       .  A
N600       Cu606   2.056       .  S
C601        C602   1.379       .  A
C601        H604   1.082       .  S
C602        C603   1.389       .  A
C602       C1107   1.471       .  S
C603        H605   1.082       .  S
Cu606       N609   2.057       .  S
Cu607       N617   2.086       .  S
Cu608       N610   2.088       .  S
Cu608       N616   2.090       .  S
N609        N610   1.320       .  A
N609        C613   1.339       .  A
N610        C611   1.353       .  A
C611        C612   1.390       .  A
C611        H614   1.082       .  S
C612        C613   1.380       .  A
C612        C708   1.473       .  S
C613        H615   1.082       .  S
N616        N617   1.326       .  A
N616        C620   1.347       .  A
N617        C618   1.344       .  A
C618        C619   1.384       .  A
C618        H621   1.082       .  S
C619        C620   1.386       .  A
C619       C1661   1.486       .  S
C620        H622   1.081       .  S
N623        N624   1.319       .  A
N623        C627   1.353       .  A
N623       Cu631   2.086       .  S
N624        C625   1.337       .  A
N624       Cu630   2.049       .  S
C625        C626   1.379       .  A
C625        H628   1.082       .  S
C626        C627   1.390       .  A
C627        H629   1.082       .  S
Cu630       N633   2.048       .  S
Cu631       N641   2.091       .  S
Cu632       N634   2.079       .  S
Cu632       N640   2.084       .  S
N633        N634   1.319       .  A
N633        C637   1.335       .  A
N634        C635   1.353       .  A
C635        C636   1.390       .  A
C635        H638   1.082       .  S
C636        C637   1.378       .  A
C636       C1197   1.469       .  S
C637        H639   1.082       .  S
N640        N641   1.327       .  A
N640        C644   1.344       .  A
N641        C642   1.346       .  A
C642        C643   1.386       .  A
C642        H645   1.081       .  S
C643        C644   1.383       .  A
C643       C1658   1.485       .  S
C644        H646   1.082       .  S
N647        N648   1.319       .  A
N647        C651   1.354       .  A
N647       Cu655   2.085       .  S
N648        C649   1.335       .  A
N648       Cu654   2.046       .  S
C649        C650   1.378       .  A
C649        H652   1.082       .  S
C650        C651   1.390       .  A
C650        C705   1.469       .  S
C651        H653   1.082       .  S
Cu654       N657   2.046       .  S
Cu655       N665   2.090       .  S
Cu656       N658   2.081       .  S
Cu656       N664   2.086       .  S
N657        N658   1.318       .  A
N657        C661   1.336       .  A
N658        C659   1.353       .  A
C659        C660   1.390       .  A
C659        H662   1.082       .  S
C660        C661   1.379       .  A
C660       C1091   1.470       .  S
C661        H663   1.082       .  S
N664        N665   1.327       .  A
N664        C668   1.344   1_655  A
N665        C666   1.346   1_655  A
C666        C667   1.385       .  A
C666        H669   1.082       .  S
C667        C668   1.383       .  A
C667       C1647   1.484       .  S
C668        H670   1.081       .  S
N671        N672   1.319       .  A
N671        C675   1.355   1_655  A
N671       Cu679   2.094   1_655  S
N672        C673   1.336       .  A
N672       Cu678   2.046       .  S
C673        C674   1.378       .  A
C673        H676   1.082       .  S
C674        C675   1.392   1_655  A
C674        C770   1.474       .  S
C675        H677   1.082       .  S
Cu678       N681   2.046       .  S
Cu679       N689   2.098       .  S
Cu680       N682   2.078       .  S
Cu680       N688   2.083       .  S
N681        N682   1.319   1_655  A
N681        C685   1.335       .  A
N682        C683   1.353       .  A
C683        C684   1.389       .  A
C683        H686   1.082       .  S
C684        C685   1.378   1_455  A
C684       C1182   1.468       .  S
C685        H687   1.082       .  S
N688        N689   1.327       .  A
N688        C692   1.345       .  A
N689        C690   1.346       .  A
C690        C691   1.387       .  A
C690        H693   1.082       .  S
C691        C692   1.384       .  A
C691       C1644   1.486       .  S
C692        H694   1.081       .  S
O695       Cu703   1.971       .  S
O695        C705   1.274       .  A
O696       Cu703   1.973   1_456  S
O696        C706   1.274       .  A
O697       Cu703   1.982       .  S
O697        C707   1.275       .  A
O698       Cu703   1.983   1_455  S
O698        C708   1.275       .  A
O699       Cu704   2.044   1_455  S
O699        C708   1.281       .  A
O700       Cu704   2.046       .  S
O700        C707   1.281       .  A
O701       Cu704   2.040   1_456  S
O701        C706   1.281       .  A
O702       Cu704   2.042       .  S
O702        C705   1.281       .  A
Cu703      Cu704   2.372       .  S
N709        N710   1.319       .  A
N709        C713   1.354       .  A
N709       Cu717   2.094       .  S
N710        C711   1.336       .  A
N710       Cu716   2.043       .  S
C711        C712   1.377       .  A
C711        H714   1.082       .  S
C712        C713   1.392       .  A
C712       C1212   1.471       .  S
C713        H715   1.082       .  S
Cu716       N719   2.044       .  S
Cu717       N727   2.099       .  S
Cu718       N720   2.090       .  S
Cu718       N726   2.093       .  S
N719        N720   1.319       .  A
N719        C723   1.336       .  A
N720        C721   1.354       .  A
C721        C722   1.392       .  A
C721        H724   1.082       .  S
C722        C723   1.378       .  A
C722        C768   1.472       .  S
C723        H725   1.082       .  S
N726        N727   1.328       .  A
N726        C730   1.346       .  A
N727        C728   1.348       .  A
C728        C729   1.386       .  A
C728        H731   1.082       .  S
C729        C730   1.384       .  A
C729       C1633   1.487       .  S
C730        H732   1.081       .  S
N733        N734   1.318       .  A
N733        C737   1.353       .  A
N733       Cu741   2.083       .  S
N734        C735   1.336       .  A
N734       Cu740   2.044       .  S
C735        C736   1.378       .  A
C735        H738   1.082       .  S
C736        C737   1.390       .  A
C736        C781   1.469       .  S
C737        H739   1.082       .  S
Cu740       N743   2.044       .  S
Cu741       N751   2.087       .  S
Cu742       N744   2.092       .  S
Cu742       N750   2.097       .  S
N743        N744   1.320       .  A
N743        C747   1.335       .  A
N744        C745   1.355       .  A
C745        C746   1.392       .  A
C745        H748   1.082       .  S
C746        C747   1.377       .  A
C746        C934   1.471       .  S
C747        H749   1.082       .  S
N750        N751   1.327       .  A
N750        C754   1.347       .  A
N751        C752   1.345       .  A
C752        C753   1.383       .  A
C752        H755   1.082       .  S
C753        C754   1.385       .  A
C753       C1630   1.484       .  S
C754        H756   1.082       .  S
O757       Cu765   1.981       .  S
O757        C767   1.275       .  A
O758       Cu765   1.978   1_455  S
O758        C768   1.275       .  A
O759       Cu765   1.978       .  S
O759        C769   1.274       .  A
O760       Cu765   1.980       .  S
O760        C770   1.275       .  A
O761       Cu766   2.045       .  S
O761        C770   1.281       .  A
O762       Cu766   2.046       .  S
O762        C769   1.281       .  A
O763       Cu766   2.047   1_455  S
O763        C768   1.281       .  A
O764       Cu766   2.048       .  S
O764        C767   1.281       .  A
Cu765      Cu766   2.372       .  S
O771       Cu779   1.976       .  S
O771        C781   1.274       .  A
O772       Cu779   1.975       .  S
O772        C782   1.274       .  A
O773       Cu779   1.981       .  S
O773        C783   1.275       .  A
O774       Cu779   1.979       .  S
O774        C784   1.275       .  A
O775       Cu780   2.045       .  S
O775        C784   1.281       .  A
O776       Cu780   2.046       .  S
O776        C783   1.281       .  A
O777       Cu780   2.039       .  S
O777        C782   1.280       .  A
O778       Cu780   2.040       .  S
O778        C781   1.280       .  A
Cu779      Cu780   2.373       .  S
N785        N786   1.319       .  A
N785        C789   1.354       .  A
N785       Cu793   2.084       .  S
N786        C787   1.335       .  A
N786       Cu792   2.047       .  S
C787        C788   1.378       .  A
C787        H790   1.082       .  S
C788        C789   1.391       .  A
C788       C1225   1.471       .  S
C789        H791   1.082       .  S
Cu792       N795   2.047       .  S
Cu793       N803   2.088       .  S
Cu794       N796   2.083       .  S
Cu794       N802   2.088       .  S
N795        N796   1.319       .  A
N795        C799   1.335       .  A
N796        C797   1.354       .  A
C797        C798   1.390       .  A
C797        H800   1.082       .  S
C798        C799   1.378       .  A
C798        C846   1.470       .  S
C799        H801   1.082       .  S
N802        N803   1.328       .  A
N802        C806   1.345       .  A
N803        C804   1.345       .  A
C804        C805   1.381       .  A
C804        H807   1.082       .  S
C805        C806   1.381       .  A
C805       C1616   1.474       .  S
C806        H808   1.082       .  S
N809        N810   1.319       .  A
N809        C813   1.354       .  A
N809       Cu817   2.086       .  S
N810        C811   1.337       .  A
N810       Cu816   2.052       .  S
C811        C812   1.379       .  A
C811        H814   1.082       .  S
C812        C813   1.391       .  A
C812       C1238   1.473       .  S
C813        H815   1.082       .  S
Cu816       N819   2.052       .  S
Cu817       N827   2.090       .  S
Cu818       N820   2.079       .  S
Cu818       N826   2.084       .  S
N819        N820   1.319       .  A
N819        C823   1.336       .  A
N820        C821   1.353       .  A
C821        C822   1.389       .  A
C821        H824   1.082       .  S
C822        C823   1.379       .  A
C822        C859   1.470       .  S
C823        H825   1.082       .  S
N826        N827   1.327       .  A
N826        C830   1.344       .  A
N827        C828   1.345       .  A
C828        C829   1.382       .  A
C828        H831   1.082       .  S
C829        C830   1.381       .  A
C829       C1619   1.477       .  S
C830        H832   1.081       .  S
O833       Cu841   1.991       .  S
O833        C843   1.276       .  A
O834       Cu841   1.983       .  S
O834        C844   1.276       .  A
O835       Cu841   1.971       .  S
O835        C845   1.273       .  A
O836       Cu841   1.974   1_545  S
O836        C846   1.274       .  A
O837       Cu842   2.043   1_545  S
O837        C846   1.281       .  A
O838       Cu842   2.040       .  S
O838        C845   1.281       .  A
O839       Cu842   2.044       .  S
O839        C844   1.280       .  A
O840       Cu842   2.043       .  S
O840        C843   1.280       .  A
Cu841      Cu842   2.373       .  S
C843       C1388   1.476       .  S
C844       C1012   1.474       .  S
O847       Cu855   1.981       .  S
O847        C857   1.275       .  A
O848       Cu855   1.984       .  S
O848        C858   1.275       .  A
O849       Cu855   1.970       .  S
O849        C859   1.273       .  A
O850       Cu855   1.967   1_556  S
O850        C860   1.273       .  A
O851       Cu856   2.049   1_556  S
O851        C860   1.282       .  A
O852       Cu856   2.048       .  S
O852        C859   1.282       .  A
O853       Cu856   2.044       .  S
O853        C858   1.281       .  A
O854       Cu856   2.048       .  S
O854        C857   1.281       .  A
Cu855      Cu856   2.372       .  S
C857       C1340   1.475       .  S
C858        C964   1.474       .  S
N861        N862   1.318       .  A
N861        C865   1.354       .  A
N861       Cu869   2.091       .  S
N862        C863   1.335       .  A
N862       Cu868   2.036       .  S
C863        C864   1.377       .  A
C863        H866   1.082       .  S
C864        C865   1.393       .  A
C864       C1211   1.471       .  S
C865        H867   1.082       .  S
Cu868       N871   2.037       .  S
Cu869       N879   2.096       .  S
Cu870       N872   2.097       .  S
Cu870       N878   2.102       .  S
N871        N872   1.318       .  A
N871        C875   1.335       .  A
N872        C873   1.355       .  A
C873        C874   1.394       .  A
C873        H876   1.082       .  S
C874        C875   1.376       .  A
C874        C920   1.473       .  S
C875        H877   1.082       .  S
N878        N879   1.328       .  A
N878        C882   1.347       .  A
N879        C880   1.345       .  A
C880        C881   1.385       .  A
C880        H883   1.082       .  S
C881        C882   1.388       .  A
C881       C1602   1.490       .  S
C882        H884   1.081       .  S
N885        N886   1.320       .  A
N885        C889   1.354       .  A
N885       Cu893   2.086       .  S
N886        C887   1.335       .  A
N886       Cu892   2.048       .  S
C887        C888   1.378       .  A
C887        H890   1.082       .  S
C888        C889   1.391       .  A
C888       C1223   1.471       .  S
C889        H891   1.082       .  S
Cu892       N895   2.049       .  S
Cu893       N903   2.091       .  S
Cu894       N896   2.092       .  S
Cu894       N902   2.096       .  S
N895        N896   1.319       .  A
N895        C899   1.337       .  A
N896        C897   1.354       .  A
C897        C898   1.391       .  A
C897        H900   1.082       .  S
C898        C899   1.380       .  A
C898        C933   1.474       .  S
C899        H901   1.082       .  S
N902        N903   1.327       .  A
N902        C906   1.346       .  A
N903        C904   1.346       .  A
C904        C905   1.387       .  A
C904        H907   1.081       .  S
C905        C906   1.387       .  A
C905       C1605   1.491       .  S
C906        H908   1.082       .  S
O909       Cu917   2.038       .  S
O909        C919   1.280       .  A
O910       Cu917   2.041   1_455  S
O910        C920   1.280       .  A
O911       Cu917   2.049       .  S
O911        C921   1.282       .  A
O912       Cu917   2.050       .  S
O912        C922   1.282       .  A
O913       Cu918   1.980       .  S
O913        C922   1.274       .  A
O914       Cu918   1.980       .  S
O914        C921   1.275       .  A
O915       Cu918   1.984   1_455  S
O915        C920   1.276       .  A
O916       Cu918   1.981       .  S
O916        C919   1.275       .  A
Cu917      Cu918   2.373       .  S
C919       C1440   1.470       .  S
C922       C1060   1.475       .  S
O923       Cu931   2.047   1_545  S
O923        C933   1.281       .  A
O924       Cu931   2.043       .  S
O924        C934   1.280       .  A
O925       Cu931   2.046       .  S
O925        C935   1.281       .  A
O926       Cu931   2.042       .  S
O926        C936   1.280       .  A
O927       Cu932   1.975       .  S
O927        C936   1.274       .  A
O928       Cu932   1.973       .  S
O928        C935   1.274       .  A
O929       Cu932   1.977       .  S
O929        C934   1.275       .  A
O930       Cu932   1.980   1_545  S
O930        C933   1.275       .  A
Cu931      Cu932   2.373       .  S
C936       C1022   1.470       .  S
N937        N938   1.319       .  A
N937        C941   1.354       .  A
N937       Cu945   2.089       .  S
N938        C939   1.335       .  A
N938       Cu944   2.042       .  S
C939        C940   1.378       .  A
C939        H942   1.082       .  S
C940        C941   1.392       .  A
C940       C1108   1.471       .  S
C941        H943   1.082       .  S
Cu944       N947   2.042       .  S
Cu945       N955   2.093       .  S
Cu946       N948   2.088       .  S
Cu946       N954   2.093       .  S
N947        N948   1.319       .  A
N947        C951   1.336       .  A
N948        C949   1.354       .  A
C949        C950   1.391       .  A
C949        H952   1.082       .  S
C950        C951   1.378       .  A
C950       C1122   1.471       .  S
C951        H953   1.082       .  S
N954        N955   1.328       .  A
N954        C958   1.347       .  A
N955        C956   1.345       .  A
C956        C957   1.384       .  A
C956        H959   1.082       .  S
C957        C958   1.384       .  A
C957       C1591   1.485       .  S
C958        H960   1.082       .  S
N961        N962   1.319       .  A
N961        C965   1.354       .  A
N961       Cu969   2.090       .  S
N962        C963   1.337       .  A
N962       Cu968   2.049       .  S
C963        C964   1.379       .  A
C963        H966   1.082       .  S
C964        C965   1.392       .  A
C965        H967   1.082       .  S
Cu968       N971   2.048       .  S
Cu969       N979   2.094       .  S
Cu970       N972   2.091       .  S
Cu970       N978   2.095       .  S
N971        N972   1.320       .  A
N971        C975   1.336       .  A
N972        C973   1.355       .  A
C973        C974   1.392       .  A
C973        H976   1.082       .  S
C974        C975   1.378       .  A
C974       C1198   1.472       .  S
C975        H977   1.082       .  S
N978        N979   1.328       .  A
N978        C982   1.347       .  A
N979        C980   1.345       .  A
C980        C981   1.385       .  A
C980        H983   1.082       .  S
C981        C982   1.386       .  A
C981       C1588   1.487       .  S
C982        H984   1.082       .  S
N985        N986   1.319       .  A
N985        C989   1.354       .  A
N985       Cu993   2.086       .  S
N986        C987   1.336       .  A
N986       Cu992   2.049       .  S
C987        C988   1.378       .  A
C987        H990   1.082       .  S
C988        C989   1.391       .  A
C988       C1106   1.471       .  S
C989        H991   1.082       .  S
Cu992       N995   2.049       .  S
Cu993      N1003   2.091       .  S
Cu994       N996   2.084       .  S
Cu994      N1002   2.088       .  S
N995        N996   1.319       .  A
N995        C999   1.336       .  A
N996        C997   1.354       .  A
C997        C998   1.391       .  A
C997       H1000   1.082       .  S
C998        C999   1.379       .  A
C998       C1094   1.472       .  S
C999       H1001   1.082       .  S
N1002      N1003   1.327       .  A
N1002      C1006   1.345       .  A
N1003      C1004   1.345       .  A
C1004      C1005   1.385       .  A
C1004      H1007   1.082       .  S
C1005      C1006   1.383       .  A
C1005      C1574   1.485       .  S
C1006      H1008   1.082       .  S
N1009      N1010   1.318       .  A
N1009      C1013   1.355       .  A
N1009     Cu1017   2.095       .  S
N1010      C1011   1.335       .  A
N1010     Cu1016   2.040       .  S
C1011      C1012   1.377       .  A
C1011      H1014   1.082       .  S
C1012      C1013   1.394       .  A
C1013      H1015   1.082       .  S
Cu1016     N1019   2.041       .  S
Cu1017     N1027   2.099       .  S
Cu1018     N1020   2.086       .  S
Cu1018     N1026   2.090       .  S
N1019      N1020   1.318       .  A
N1019      C1023   1.335       .  A
N1020      C1021   1.353       .  A
C1021      C1022   1.391       .  A
C1021      H1024   1.082       .  S
C1022      C1023   1.377       .  A
C1023      H1025   1.082       .  S
N1026      N1027   1.328       .  A
N1026      C1030   1.346       .  A
N1027      C1028   1.345       .  A
C1028      C1029   1.385       .  A
C1028      H1031   1.082       .  S
C1029      C1030   1.384       .  A
C1029      C1577   1.484       .  S
C1030      H1032   1.082       .  S
N1033      N1034   1.319   1_655  A
N1033      C1037   1.353       .  A
N1033     Cu1041   2.084       .  S
N1034      C1035   1.337       .  A
N1034     Cu1040   2.048       .  S
C1035      C1036   1.379       .  A
C1035      H1038   1.082       .  S
C1036      C1037   1.390   1_455  A
C1036      C1119   1.470       .  S
C1037      H1039   1.082       .  S
Cu1040     N1043   2.048       .  S
Cu1041     N1051   2.087       .  S
Cu1042     N1044   2.086       .  S
Cu1042     N1050   2.091       .  S
N1043      N1044   1.319   1_455  A
N1043      C1047   1.336       .  A
N1044      C1045   1.353       .  A
C1045      C1046   1.390   1_655  A
C1045      H1048   1.082       .  S
C1046      C1047   1.378       .  A
C1046      C1092   1.470   1_455  S
C1047      H1049   1.082       .  S
N1050      N1051   1.327       .  A
N1050      C1054   1.345       .  A
N1051      C1052   1.345       .  A
C1052      C1053   1.385       .  A
C1052      H1055   1.081       .  S
C1053      C1054   1.386       .  A
C1053      C1563   1.486       .  S
C1054      H1056   1.082       .  S
N1057      N1058   1.318       .  A
N1057      C1061   1.354       .  A
N1057     Cu1065   2.088       .  S
N1058      C1059   1.338       .  A
N1058     Cu1064   2.050       .  S
C1059      C1060   1.380       .  A
C1059      H1062   1.082       .  S
C1060      C1061   1.391       .  A
C1061      H1063   1.082       .  S
Cu1064     N1067   2.048       .  S
Cu1065     N1075   2.093       .  S
Cu1066     N1068   2.086       .  S
Cu1066     N1074   2.091       .  S
N1067      N1068   1.320       .  A
N1067      C1071   1.334       .  A
N1068      C1069   1.355       .  A
C1069      C1070   1.391       .  A
C1069      H1072   1.082       .  S
C1070      C1071   1.377       .  A
C1070      C1181   1.470       .  S
C1071      H1073   1.082       .  S
N1074      N1075   1.327       .  A
N1074      C1078   1.346       .  A
N1075      C1076   1.345       .  A
C1076      C1077   1.385       .  A
C1076      H1079   1.081       .  S
C1077      C1078   1.385       .  A
C1077      C1560   1.486       .  S
C1078      H1080   1.082       .  S
O1081     Cu1089   2.039       .  S
O1081      C1091   1.280       .  A
O1082     Cu1089   2.040   1_545  S
O1082      C1092   1.280       .  A
O1083     Cu1089   2.045       .  S
O1083      C1093   1.281       .  A
O1084     Cu1089   2.050   1_455  S
O1084      C1094   1.282       .  A
O1085     Cu1090   1.972   1_455  S
O1085      C1094   1.274       .  A
O1086     Cu1090   1.971       .  S
O1086      C1093   1.274       .  A
O1087     Cu1090   1.978   1_545  S
O1087      C1092   1.275       .  A
O1088     Cu1090   1.979       .  S
O1088      C1091   1.275       .  A
Cu1089    Cu1090   2.373       .  S
C1093      C1364   1.470       .  S
O1095     Cu1103   2.041   1_556  S
O1095      C1105   1.280       .  A
O1096     Cu1103   2.043       .  S
O1096      C1106   1.281       .  A
O1097     Cu1103   2.045       .  S
O1097      C1107   1.281       .  A
O1098     Cu1103   2.045   1_545  S
O1098      C1108   1.281       .  A
O1099     Cu1104   1.974   1_545  S
O1099      C1108   1.274       .  A
O1100     Cu1104   1.977       .  S
O1100      C1107   1.274       .  A
O1101     Cu1104   1.975       .  S
O1101      C1106   1.274       .  A
O1102     Cu1104   1.977   1_556  S
O1102      C1105   1.275       .  A
Cu1103    Cu1104   2.373       .  S
O1109     Cu1117   2.041   1_455  S
O1109      C1119   1.281       .  A
O1110     Cu1117   2.038   1_556  S
O1110      C1120   1.280       .  A
O1111     Cu1117   2.038       .  S
O1111      C1121   1.280       .  A
O1112     Cu1117   2.042   1_455  S
O1112      C1122   1.280       .  A
O1113     Cu1118   1.977   1_455  S
O1113      C1122   1.275       .  A
O1114     Cu1118   1.981       .  S
O1114      C1121   1.275       .  A
O1115     Cu1118   1.982   1_556  S
O1115      C1120   1.275       .  A
O1116     Cu1118   1.979   1_455  S
O1116      C1119   1.274       .  A
Cu1117    Cu1118   2.373       .  S
C1121      C1316   1.471       .  S
N1123      N1124   1.320       .  A
N1123      C1127   1.355       .  A
N1123     Cu1131   2.096       .  S
N1124      C1125   1.339       .  A
N1124     Cu1130   2.062       .  S
C1125      C1126   1.381       .  A
C1125      H1128   1.082       .  S
C1126      C1127   1.392       .  A
C1126      C1210   1.478       .  S
C1127      H1129   1.082       .  S
Cu1130     N1133   2.060       .  S
Cu1131     N1141   2.100       .  S
Cu1132     N1134   2.089       .  S
Cu1132     N1140   2.092       .  S
N1133      N1134   1.320       .  A
N1133      C1137   1.336       .  A
N1134      C1135   1.356       .  A
C1135      C1136   1.392       .  A
C1135      H1138   1.082       .  S
C1136      C1137   1.381       .  A
C1136      C1184   1.477       .  S
C1137      H1139   1.082       .  S
N1140      N1141   1.328       .  A
N1140      C1144   1.345       .  A
N1141      C1142   1.348       .  A
C1142      C1143   1.386       .  A
C1142      H1145   1.082       .  S
C1143      C1144   1.384       .  A
C1143      C1549   1.487       .  S
C1144      H1146   1.082       .  S
N1147      N1148   1.319       .  A
N1147      C1151   1.354       .  A
N1147     Cu1155   2.086       .  S
N1148      C1149   1.336       .  A
N1148     Cu1154   2.048       .  S
C1149      C1150   1.378       .  A
C1149      H1152   1.082       .  S
C1150      C1151   1.391       .  A
C1150      C1239   1.471       .  S
C1151      H1153   1.082       .  S
Cu1154     N1157   2.048       .  S
Cu1155     N1165   2.091       .  S
Cu1156     N1158   2.090       .  S
Cu1156     N1164   2.095       .  S
N1157      N1158   1.319       .  A
N1157      C1161   1.337       .  A
N1158      C1159   1.354       .  A
C1159      C1160   1.391       .  A
C1159      H1162   1.082       .  S
C1160      C1161   1.379       .  A
C1160      C1195   1.472       .  S
C1161      H1163   1.082       .  S
N1164      N1165   1.327       .  A
N1164      C1168   1.346       .  A
N1165      C1166   1.346       .  A
C1166      C1167   1.385       .  A
C1166      H1169   1.081       .  S
C1167      C1168   1.386       .  A
C1167      C1546   1.488       .  S
C1168      H1170   1.082       .  S
O1171     Cu1179   1.971       .  S
O1171      C1181   1.274       .  A
O1172     Cu1179   1.971   1_455  S
O1172      C1182   1.274       .  A
O1173     Cu1179   1.975       .  S
O1173      C1183   1.274       .  A
O1174     Cu1179   1.976   1_455  S
O1174      C1184   1.274       .  A
O1175     Cu1180   2.057   1_455  S
O1175      C1184   1.283       .  A
O1176     Cu1180   2.057       .  S
O1176      C1183   1.283       .  A
O1177     Cu1180   2.040       .  S
O1177      C1182   1.280   1_655  A
O1178     Cu1180   2.043       .  S
O1178      C1181   1.281       .  A
Cu1179    Cu1180   2.372       .  S
C1183      C1278   1.476       .  S
O1185     Cu1193   1.979       .  S
O1185      C1195   1.275       .  A
O1186     Cu1193   1.976   1_556  S
O1186      C1196   1.274       .  A
O1187     Cu1193   1.970       .  S
O1187      C1197   1.274       .  A
O1188     Cu1193   1.976       .  S
O1188      C1198   1.274       .  A
O1189     Cu1194   2.046       .  S
O1189      C1198   1.281       .  A
O1190     Cu1194   2.044       .  S
O1190      C1197   1.281       .  A
O1191     Cu1194   2.045   1_556  S
O1191      C1196   1.281       .  A
O1192     Cu1194   2.043       .  S
O1192      C1195   1.281       .  A
Cu1193    Cu1194   2.373       .  S
O1199     Cu1207   1.976       .  S
O1199      C1209   1.274       .  A
O1200     Cu1207   1.983       .  S
O1200      C1210   1.274       .  A
O1201     Cu1207   1.983       .  S
O1201      C1211   1.276       .  A
O1202     Cu1207   1.985       .  S
O1202      C1212   1.276       .  A
O1203     Cu1208   2.036       .  S
O1203      C1212   1.279       .  A
O1204     Cu1208   2.039       .  S
O1204      C1211   1.279       .  A
O1205     Cu1208   2.055       .  S
O1205      C1210   1.283       .  A
O1206     Cu1208   2.054       .  S
O1206      C1209   1.282       .  A
Cu1207    Cu1208   2.372       .  S
O1213     Cu1221   2.046       .  S
O1213      C1223   1.281       .  A
O1214     Cu1221   2.043       .  S
O1214      C1224   1.281       .  A
O1215     Cu1221   2.044       .  S
O1215      C1225   1.281       .  A
O1216     Cu1221   2.047       .  S
O1216      C1226   1.281       .  A
O1217     Cu1222   1.978       .  S
O1217      C1226   1.274       .  A
O1218     Cu1222   1.974       .  S
O1218      C1225   1.274       .  A
O1219     Cu1222   1.973       .  S
O1219      C1224   1.274       .  A
O1220     Cu1222   1.970       .  S
O1220      C1223   1.274       .  A
Cu1221    Cu1222   2.373       .  S
C1224      C1426   1.470       .  S
O1227     Cu1235   1.976       .  S
O1227      C1237   1.274       .  A
O1228     Cu1235   1.978       .  S
O1228      C1238   1.274       .  A
O1229     Cu1235   1.972       .  S
O1229      C1239   1.274       .  A
O1230     Cu1235   1.973       .  S
O1230      C1240   1.274       .  A
O1231     Cu1236   2.045       .  S
O1231      C1240   1.281       .  A
O1232     Cu1236   2.046       .  S
O1232      C1239   1.281       .  A
O1233     Cu1236   2.047       .  S
O1233      C1238   1.281       .  A
O1234     Cu1236   2.046       .  S
O1234      C1237   1.281       .  A
Cu1235    Cu1236   2.372       .  S
C1240      C1254   1.471       .  S
N1241      N1242   1.319       .  A
N1241      C1245   1.354       .  A
N1241     Cu1249   2.085       .  S
N1242      C1243   1.336       .  A
N1242     Cu1248   2.047       .  S
C1243      C1244   1.379       .  A
C1243      H1246   1.082       .  S
C1244      C1245   1.391       .  A
C1244      C1299   1.471       .  S
C1245      H1247   1.082       .  S
Cu1248     N1251   2.046       .  S
Cu1249     N1259   2.090       .  S
Cu1250     N1252   2.086       .  S
Cu1250     N1258   2.091       .  S
N1251      N1252   1.319       .  A
N1251      C1255   1.335       .  A
N1252      C1253   1.354       .  A
C1253      C1254   1.391       .  A
C1253      H1256   1.082       .  S
C1254      C1255   1.378       .  A
C1255      H1257   1.082       .  S
N1258      N1259   1.327       .  A
N1258      C1262   1.345       .  A
N1259      C1260   1.346       .  A
C1260      C1261   1.386       .  A
C1260      H1263   1.081       .  S
C1261      C1262   1.385       .  A
C1261      C1532   1.487       .  S
C1262      H1264   1.082       .  S
N1265      N1266   1.320       .  A
N1265      C1269   1.353       .  A
N1265     Cu1273   2.084       .  S
N1266      C1267   1.337       .  A
N1266     Cu1272   2.055       .  S
C1267      C1268   1.379       .  A
C1267      H1270   1.082       .  S
C1268      C1269   1.390       .  A
C1268      C1486   1.472       .  S
C1269      H1271   1.082       .  S
Cu1272     N1275   2.056       .  S
Cu1273     N1283   2.088       .  S
Cu1274     N1276   2.091       .  S
Cu1274     N1282   2.095       .  S
N1275      N1276   1.319       .  A
N1275      C1279   1.337       .  A
N1276      C1277   1.355       .  A
C1277      C1278   1.392       .  A
C1277      H1280   1.082       .  S
C1278      C1279   1.381       .  A
C1279      H1281   1.082       .  S
N1282      N1283   1.327       .  A
N1282      C1286   1.346       .  A
N1283      C1284   1.345       .  A
C1284      C1285   1.385       .  A
C1284      H1287   1.081       .  S
C1285      C1286   1.386       .  A
C1285      C1535   1.487       .  S
C1286      H1288   1.082       .  S
O1289     Cu1297   1.975       .  S
O1289      C1299   1.274       .  A
O1290     Cu1297   1.976   1_556  S
O1290      C1300   1.274       .  A
O1291     Cu1297   1.990       .  S
O1291      C1301   1.276       .  A
O1292     Cu1297   1.989       .  S
O1292      C1302   1.276       .  A
O1293     Cu1298   2.045       .  S
O1293      C1302   1.281       .  A
O1294     Cu1298   2.047       .  S
O1294      C1301   1.281       .  A
O1295     Cu1298   2.046   1_556  S
O1295      C1300   1.281       .  A
O1296     Cu1298   2.045       .  S
O1296      C1299   1.281       .  A
Cu1297    Cu1298   2.372       .  S
C1301      C1330   1.477       .  S
N1303      N1304   1.319       .  A
N1303      C1307   1.354       .  A
N1303     Cu1311   2.087       .  S
N1304      C1305   1.335       .  A
N1304     Cu1310   2.043       .  S
C1305      C1306   1.377       .  A
C1305      H1308   1.082       .  S
C1306      C1307   1.391       .  A
C1306      C1411   1.471       .  S
C1307      H1309   1.082       .  S
Cu1310     N1313   2.042       .  S
Cu1311     N1321   2.092       .  S
Cu1312     N1314   2.092       .  S
Cu1312     N1320   2.097       .  S
N1313      N1314   1.319       .  A
N1313      C1317   1.336       .  A
N1314      C1315   1.354       .  A
C1315      C1316   1.392       .  A
C1315      H1318   1.082       .  S
C1316      C1317   1.377       .  A
C1317      H1319   1.082       .  S
N1320      N1321   1.327       .  A
N1320      C1324   1.347       .  A
N1321      C1322   1.345       .  A
C1322      C1323   1.385       .  A
C1322      H1325   1.082       .  S
C1323      C1324   1.387       .  A
C1323      C1518   1.488       .  S
C1324      H1326   1.081       .  S
N1327      N1328   1.319       .  A
N1327      C1331   1.355       .  A
N1327     Cu1335   2.095       .  S
N1328      C1329   1.338       .  A
N1328     Cu1334   2.052       .  S
C1329      C1330   1.380       .  A
C1329      H1332   1.082       .  S
C1330      C1331   1.393       .  A
C1331      H1333   1.082       .  S
Cu1334     N1337   2.052       .  S
Cu1335     N1345   2.098       .  S
Cu1336     N1338   2.093       .  S
Cu1336     N1344   2.098       .  S
N1337      N1338   1.319       .  A
N1337      C1341   1.336       .  A
N1338      C1339   1.356       .  A
C1339      C1340   1.393       .  A
C1339      H1342   1.082       .  S
C1340      C1341   1.378       .  A
C1341      H1343   1.082       .  S
N1344      N1345   1.328       .  A
N1344      C1348   1.347       .  A
N1345      C1346   1.346       .  A
C1346      C1347   1.386       .  A
C1346      H1349   1.082       .  S
C1347      C1348   1.387       .  A
C1347      C1521   1.489       .  S
C1348      H1350   1.081       .  S
N1351      N1352   1.319       .  A
N1351      C1355   1.355       .  A
N1351     Cu1359   2.092       .  S
N1352      C1353   1.336       .  A
N1352     Cu1358   2.046       .  S
C1353      C1354   1.378       .  A
C1353      H1356   1.082       .  S
C1354      C1355   1.392       .  A
C1354      C1409   1.473       .  S
C1355      H1357   1.082       .  S
Cu1358     N1361   2.047       .  S
Cu1359     N1369   2.096       .  S
Cu1360     N1362   2.086       .  S
Cu1360     N1368   2.091       .  S
N1361      N1362   1.319       .  A
N1361      C1365   1.335       .  A
N1362      C1363   1.354       .  A
C1363      C1364   1.390       .  A
C1363      H1366   1.082       .  S
C1364      C1365   1.378       .  A
C1365      H1367   1.082       .  S
N1368      N1369   1.327       .  A
N1368      C1372   1.346       .  A
N1369      C1370   1.346       .  A
C1370      C1371   1.385       .  A
C1370      H1373   1.082       .  S
C1371      C1372   1.386       .  A
C1371      C1504   1.488       .  S
C1372      H1374   1.081       .  S
N1375      N1376   1.319       .  A
N1375      C1379   1.356       .  A
N1375     Cu1383   2.089       .  S
N1376      C1377   1.335       .  A
N1376     Cu1382   2.047       .  S
C1377      C1378   1.378       .  A
C1377      H1380   1.082       .  S
C1378      C1379   1.393       .  A
C1378      C1474   1.473       .  S
C1379      H1381   1.082       .  S
Cu1382     N1385   2.047       .  S
Cu1383     N1393   2.094       .  S
Cu1384     N1386   2.100       .  S
Cu1384     N1392   2.104       .  S
N1385      N1386   1.319       .  A
N1385      C1389   1.338       .  A
N1386      C1387   1.355       .  A
C1387      C1388   1.394       .  A
C1387      H1390   1.082       .  S
C1388      C1389   1.379       .  A
C1389      H1391   1.082       .  S
N1392      N1393   1.328       .  A
N1392      C1396   1.348       .  A
N1393      C1394   1.345       .  A
C1394      C1395   1.384       .  A
C1394      H1397   1.082       .  S
C1395      C1396   1.388       .  A
C1395      C1507   1.489       .  S
C1396      H1398   1.081       .  S
O1399     Cu1407   1.976       .  S
O1399      C1409   1.274       .  A
O1400     Cu1407   1.976   1_556  S
O1400      C1410   1.274       .  A
O1401     Cu1407   1.978   1_545  S
O1401      C1411   1.275       .  A
O1402     Cu1407   1.982       .  S
O1402      C1412   1.275       .  A
O1403     Cu1408   2.044       .  S
O1403      C1412   1.281       .  A
O1404     Cu1408   2.042   1_545  S
O1404      C1411   1.280       .  A
O1405     Cu1408   2.046   1_556  S
O1405      C1410   1.281       .  A
O1406     Cu1408   2.048       .  S
O1406      C1409   1.281       .  A
Cu1407    Cu1408   2.372       .  S
N1413      N1414   1.319       .  A
N1413      C1417   1.355       .  A
N1413     Cu1421   2.090       .  S
N1414      C1415   1.335       .  A
N1414     Cu1420   2.047       .  S
C1415      C1416   1.379       .  A
C1415      H1418   1.082       .  S
C1416      C1417   1.392       .  A
C1416      C1471   1.473       .  S
C1417      H1419   1.082       .  S
Cu1420     N1423   2.046       .  S
Cu1421     N1431   2.094       .  S
Cu1422     N1424   2.083       .  S
Cu1422     N1430   2.088       .  S
N1423      N1424   1.319       .  A
N1423      C1427   1.335       .  A
N1424      C1425   1.353       .  A
C1425      C1426   1.390       .  A
C1425      H1428   1.082       .  S
C1426      C1427   1.378       .  A
C1427      H1429   1.082       .  S
N1430      N1431   1.328       .  A
N1430      C1434   1.345       .  A
N1431      C1432   1.346       .  A
C1432      C1433   1.384       .  A
C1432      H1435   1.082       .  S
C1433      C1434   1.383       .  A
C1433      C1490   1.482       .  S
C1434      H1436   1.082       .  S
N1437      N1438   1.319       .  A
N1437      C1441   1.353       .  A
N1437     Cu1445   2.087       .  S
N1438      C1439   1.336       .  A
N1438     Cu1444   2.044       .  S
C1439      C1440   1.377       .  A
C1439      H1442   1.082       .  S
C1440      C1441   1.391       .  A
C1441      H1443   1.082       .  S
Cu1444     N1447   2.044       .  S
Cu1445     N1455   2.091       .  S
Cu1446     N1448   2.081       .  S
Cu1446     N1454   2.085       .  S
N1447      N1448   1.319       .  A
N1447      C1451   1.335       .  A
N1448      C1449   1.353       .  A
C1449      C1450   1.390       .  A
C1449      H1452   1.082       .  S
C1450      C1451   1.378       .  A
C1450      C1487   1.468       .  S
C1451      H1453   1.082       .  S
N1454      N1455   1.327       .  A
N1454      C1458   1.345       .  A
N1455      C1456   1.346       .  A
C1456      C1457   1.384       .  A
C1456      H1459   1.082       .  S
C1457      C1458   1.383       .  A
C1457      C1493   1.482       .  S
C1458      H1460   1.082       .  S
O1461     Cu1469   1.973   1_545  S
O1461      C1471   1.274       .  A
O1462     Cu1469   1.973       .  S
O1462      C1472   1.274       .  A
O1463     Cu1469   1.978       .  S
O1463      C1473   1.274       .  A
O1464     Cu1469   1.975       .  S
O1464      C1474   1.274       .  A
O1465     Cu1470   2.049       .  S
O1465      C1474   1.281       .  A
O1466     Cu1470   2.045       .  S
O1466      C1473   1.281       .  A
O1467     Cu1470   2.049       .  S
O1467      C1472   1.282       .  A
O1468     Cu1470   2.051   1_545  S
O1468      C1471   1.282       .  A
Cu1469    Cu1470   2.372       .  S
O1475     Cu1483   2.040       .  S
O1475      C1485   1.280       .  A
O1476     Cu1483   2.044       .  S
O1476      C1486   1.281       .  A
O1477     Cu1483   2.043       .  S
O1477      C1487   1.281       .  A
O1478     Cu1483   2.043       .  S
O1478      C1488   1.281       .  A
O1479     Cu1484   1.974       .  S
O1479      C1488   1.274       .  A
O1480     Cu1484   1.970       .  S
O1480      C1487   1.274       .  A
O1481     Cu1484   1.977       .  S
O1481      C1486   1.274       .  A
O1482     Cu1484   1.979       .  S
O1482      C1485   1.275       .  A
Cu1483    Cu1484   2.373       .  S
C1489      C1490   1.404       .  A
C1489      C1494   1.406       .  A
C1489      H1496   1.083       .  S
C1490      C1491   1.412       .  A
C1491      C1492   1.406       .  A
C1491      N1498   1.438       .  S
C1492      C1493   1.403       .  A
C1492      H1497   1.083       .  S
C1493      C1494   1.413       .  A
C1494      N1495   1.438       .  S
N1495      H1499   1.045       .  S
N1495      H1500   1.046       .  S
N1498      H1501   1.047       .  S
N1498      H1502   1.045       .  S
C1503      C1504   1.405       .  A
C1503      C1508   1.405       .  A
C1503      H1510   1.083       .  S
C1504      C1505   1.411       .  A
C1505      C1506   1.405       .  A
C1505      N1512   1.432       .  S
C1506      C1507   1.405       .  A
C1506      H1511   1.083       .  S
C1507      C1508   1.411       .  A
C1508      N1509   1.432       .  S
N1509      H1513   1.045       .  S
N1509      H1514   1.046   1_565  S
N1512      H1515   1.047       .  S
N1512      H1516   1.044       .  S
C1517      C1518   1.405       .  A
C1517      C1522   1.405       .  A
C1517      H1524   1.083       .  S
C1518      C1519   1.411       .  A
C1519      C1520   1.406       .  A
C1519      N1526   1.432   1_554  S
C1520      C1521   1.406       .  A
C1520      H1525   1.083       .  S
C1521      C1522   1.412       .  A
C1522      N1523   1.432       .  S
N1523      H1527   1.045       .  S
N1523      H1528   1.046       .  S
N1526      H1529   1.045   1_556  S
N1526      H1530   1.046       .  S
C1531      C1532   1.404       .  A
C1531      C1536   1.406       .  A
C1531      H1538   1.083       .  S
C1532      C1533   1.413       .  A
C1533      C1534   1.407       .  A
C1533      N1540   1.437       .  S
C1534      C1535   1.405       .  A
C1534      H1539   1.083       .  S
C1535      C1536   1.414       .  A
C1536      N1537   1.437       .  S
N1537      H1541   1.046       .  S
N1537      H1542   1.045       .  S
N1540      H1543   1.045       .  S
N1540      H1544   1.046       .  S
C1545      C1546   1.404       .  A
C1545      C1550   1.407       .  A
C1545      H1552   1.083       .  S
C1546      C1547   1.414       .  A
C1547      C1548   1.408       .  A
C1547      N1554   1.437       .  S
C1548      C1549   1.404       .  A
C1548      H1553   1.083       .  S
C1549      C1550   1.413       .  A
C1550      N1551   1.438       .  S
N1551      H1555   1.046       .  S
N1551      H1556   1.045       .  S
N1554      H1557   1.045       .  S
N1554      H1558   1.046       .  S
C1559      C1560   1.404       .  A
C1559      C1564   1.407       .  A
C1559      H1566   1.083       .  S
C1560      C1561   1.413   1_655  A
C1561      C1562   1.405       .  A
C1561      N1568   1.438       .  S
C1562      C1563   1.404   1_455  A
C1562      H1567   1.083       .  S
C1563      C1564   1.414       .  A
C1564      N1565   1.438       .  S
N1565      H1569   1.046       .  S
N1565      H1570   1.045       .  S
N1568      H1571   1.046       .  S
N1568      H1572   1.046       .  S
C1573      C1574   1.405       .  A
C1573      C1578   1.407       .  A
C1573      H1580   1.083       .  S
C1574      C1575   1.412       .  A
C1575      C1576   1.405       .  A
C1575      N1582   1.437       .  S
C1576      C1577   1.403       .  A
C1576      H1581   1.083       .  S
C1577      C1578   1.413       .  A
C1578      N1579   1.438   1_565  S
N1579      H1583   1.047       .  S
N1579      H1584   1.045       .  S
N1582      H1585   1.046       .  S
N1582      H1586   1.046       .  S
C1587      C1588   1.404       .  A
C1587      C1592   1.405       .  A
C1587      H1594   1.083       .  S
C1588      C1589   1.413       .  A
C1589      C1590   1.408       .  A
C1589      N1596   1.437       .  S
C1590      C1591   1.405       .  A
C1590      H1595   1.084       .  S
C1591      C1592   1.412       .  A
C1592      N1593   1.438   1_554  S
N1593      H1597   1.046       .  S
N1593      H1598   1.045       .  S
N1596      H1599   1.045       .  S
N1596      H1600   1.046       .  S
C1601      C1602   1.405       .  A
C1601      C1606   1.405       .  A
C1601      H1608   1.083       .  S
C1602      C1603   1.412       .  A
C1603      C1604   1.405       .  A
C1603      N1610   1.432       .  S
C1604      C1605   1.406       .  A
C1604      H1609   1.083       .  S
C1605      C1606   1.412       .  A
C1606      N1607   1.432       .  S
N1607      H1611   1.046       .  S
N1607      H1612   1.045       .  S
N1610      H1613   1.045       .  S
N1610      H1614   1.046       .  S
C1615      C1616   1.402       .  A
C1615      C1620   1.399       .  A
C1615      H1622   1.084       .  S
C1616      C1617   1.413       .  A
C1617      C1618   1.399       .  A
C1617      N1624   1.432       .  S
C1618      C1619   1.403       .  A
C1618      H1623   1.084       .  S
C1619      C1620   1.415       .  A
C1620      N1621   1.432       .  S
N1621      H1625   1.042       .  S
N1621      H1626   1.046       .  S
N1624      H1627   1.045       .  S
N1624      H1628   1.044       .  S
C1629      C1630   1.403       .  A
C1629      C1634   1.405       .  A
C1629      H1636   1.084       .  S
C1630      C1631   1.411       .  A
C1631      C1632   1.405       .  A
C1631      N1638   1.432       .  S
C1632      C1633   1.404       .  A
C1632      H1637   1.084       .  S
C1633      C1634   1.412       .  A
C1634      N1635   1.432       .  S
N1635      H1639   1.045       .  S
N1635      H1640   1.046       .  S
N1638      H1641   1.045       .  S
N1638      H1642   1.046       .  S
C1643      C1644   1.404   1_655  A
C1643      C1648   1.405       .  A
C1643      H1650   1.083       .  S
C1644      C1645   1.414       .  A
C1645      C1646   1.407       .  A
C1645      N1652   1.437       .  S
C1646      C1647   1.403       .  A
C1646      H1651   1.083       .  S
C1647      C1648   1.413   1_455  A
C1648      N1649   1.438       .  S
N1649      H1653   1.045       .  S
N1649      H1654   1.046       .  S
N1652      H1655   1.046       .  S
N1652      H1656   1.046       .  S
C1657      C1658   1.405       .  A
C1657      C1662   1.406       .  A
C1657      H1664   1.083       .  S
C1658      C1659   1.412       .  A
C1659      C1660   1.406       .  A
C1659      N1666   1.438       .  S
C1660      C1661   1.405       .  A
C1660      H1665   1.083       .  S
C1661      C1662   1.413       .  A
C1662      N1663   1.437       .  S
N1663      H1667   1.046   1_554  S
N1663      H1668   1.045   1_554  S
N1666      H1669   1.046       .  S
N1666      H1670   1.045       .  S
C1671      C1672   1.404       .  A
C1671      C1676   1.404       .  A
C1671      H1678   1.084       .  S
C1672      C1673   1.410       .  A
C1673      C1674   1.403       .  A
C1673      N1680   1.432       .  S
C1674      C1675   1.403       .  A
C1674      H1679   1.084       .  S
C1675      C1676   1.411       .  A
C1676      N1677   1.432       .  S
N1677      H1681   1.046       .  S
N1677      H1682   1.046       .  S
N1680      H1683   1.045       .  S
N1680      H1684   1.046       .  S
C1685      C1686   1.404       .  A
C1685      C1690   1.407       .  A
C1685      H1692   1.083       .  S
C1686      C1687   1.413       .  A
C1687      C1688   1.407       .  A
C1687      N1694   1.438       .  S
C1688      C1689   1.405       .  A
C1688      H1693   1.083       .  S
C1689      C1690   1.413       .  A
C1690      N1691   1.437       .  S
N1691      H1695   1.046       .  S
N1691      H1696   1.045       .  S
N1694      H1697   1.046       .  S
N1694      H1698   1.045       .  S
C1699      C1700   1.405       .  A
C1699      C1704   1.404       .  A
C1699      H1706   1.083       .  S
C1700      C1701   1.411       .  A
C1701      C1702   1.403       .  A
C1701      N1708   1.432   1_565  S
C1702      C1703   1.403       .  A
C1702      H1707   1.084       .  S
C1703      C1704   1.410       .  A
C1704      N1705   1.432       .  S
N1705      H1709   1.046       .  S
N1705      H1710   1.045       .  S
N1708      H1711   1.045   1_545  S
N1708      H1712   1.046       .  S
C1713      C1714   1.404   1_455  A
C1713      C1718   1.405       .  A
C1713      H1720   1.083       .  S
C1714      C1715   1.413       .  A
C1715      C1716   1.406       .  A
C1715      N1722   1.437       .  S
C1716      C1717   1.405       .  A
C1716      H1721   1.083       .  S
C1717      C1718   1.413   1_655  A
C1718      N1719   1.437       .  S
N1719      H1723   1.046       .  S
N1719      H1724   1.046       .  S
N1722      H1725   1.045       .  S
N1722      H1726   1.046       .  S
C1727      C1728   1.404       .  A
C1727      C1732   1.403       .  A
C1727      H1734   1.083       .  S
C1728      C1729   1.411       .  A
C1729      C1730   1.405       .  A
C1729      N1736   1.432       .  S
C1730      C1731   1.406       .  A
C1730      H1735   1.083       .  S
C1731      C1732   1.413       .  A
C1732      N1733   1.432       .  S
N1733      H1737   1.045       .  S
N1733      H1738   1.046       .  S
N1736      H1739   1.046       .  S
N1736      H1740   1.045       .  S
C1741      C1742   1.404       .  A
C1741      C1746   1.406       .  A
C1741      H1748   1.083       .  S
C1742      C1743   1.413   1_655  A
C1743      C1744   1.404       .  A
C1743      N1750   1.438       .  S
C1744      C1745   1.404   1_455  A
C1744      H1749   1.083       .  S
C1745      C1746   1.413       .  A
C1746      N1747   1.437       .  S
N1747      H1751   1.046       .  S
N1747      H1752   1.046       .  S
N1750      H1753   1.045       .  S
N1750      H1754   1.046       .  S
C1755      C1756   1.405       .  A
C1755      C1760   1.404       .  A
C1755      H1762   1.083       .  S
C1756      C1757   1.412       .  A
C1757      C1758   1.403       .  A
C1757      N1764   1.432   1_565  S
C1758      C1759   1.404       .  A
C1758      H1763   1.083       .  S
C1759      C1760   1.412       .  A
C1760      N1761   1.432       .  S
N1761      H1765   1.045       .  S
N1761      H1766   1.046       .  S
N1764      H1767   1.046   1_545  S
N1764      H1768   1.045       .  S
C1769      C1770   1.405       .  A
C1769      C1774   1.408       .  A
C1769      H1776   1.083       .  S
C1770      C1771   1.413       .  A
C1771      C1772   1.407       .  A
C1771      N1778   1.437       .  S
C1772      C1773   1.405       .  A
C1772      H1777   1.083       .  S
C1773      C1774   1.414       .  A
C1774      N1775   1.437       .  S
N1775      H1779   1.045   1_554  S
N1775      H1780   1.046   1_554  S
N1778      H1781   1.046       .  S
N1778      H1782   1.046       .  S
C1783      C1784   1.405       .  A
C1783      C1788   1.408       .  A
C1783      H1790   1.084       .  S
C1784      C1785   1.416       .  A
C1785      C1786   1.399       .  A
C1785      N1792   1.432       .  S
C1786      C1787   1.402       .  A
C1786      H1791   1.084       .  S
C1787      C1788   1.412       .  A
C1788      N1789   1.437       .  S
N1789      H1793   1.046       .  S
N1789      H1794   1.046       .  S
N1792      H1795   1.046       .  S
N1792      H1796   1.043       .  S
C1797      C1798   1.406       .  A
C1797      C1802   1.406       .  A
C1797      H1804   1.082       .  S
C1798      C1799   1.415       .  A
C1799      C1800   1.408       .  A
C1799      N1806   1.437       .  S
C1800      C1801   1.406       .  A
C1800      H1805   1.083       .  S
C1801      C1802   1.414       .  A
C1802      N1803   1.437       .  S
N1803      H1807   1.046       .  S
N1803      H1808   1.045       .  S
N1806      H1809   1.045       .  S
N1806      H1810   1.046       .  S
C1811      C1812   1.403       .  A
C1811      C1816   1.399       .  A
C1811      H1818   1.084       .  S
C1812      C1813   1.415       .  A
C1813      C1814   1.400       .  A
C1813      N1820   1.432       .  S
C1814      C1815   1.403       .  A
C1814      H1819   1.084       .  S
C1815      C1816   1.415       .  A
C1816      N1817   1.432       .  S
N1817      H1821   1.042       .  S
N1817      H1822   1.046       .  S
N1820      H1823   1.045       .  S
N1820      H1824   1.043       .  S
