geometry optimzed in LAMMPS
_audit_creation_date              2020-12-01 
_audit_creation_method            'lammps2cif' 
_symmetry_space_group_name_H-M    'P1' 
_symmetry_Int_Tables_number       1 
_symmetry_cell_setting            triclinic 
loop_ 
_symmetry_equiv_pos_as_xyz 
  x,y,z 
_cell_length_a                    47.56341537 
_cell_length_b                    47.48525576313308 
_cell_length_c                    26.900698755293476 
_cell_angle_alpha                 90.29802496757758 
_cell_angle_beta                  89.66134889530016 
_cell_angle_gamma                 89.9948324275378 
loop_ 
_atom_site_label 
_atom_site_type_symbol 
_atom_site_fract_x 
_atom_site_fract_y 
_atom_site_fract_z 
_atom_site_charge 
N1          N  0.63249958  0.30547881  0.00080942    -0.27500
N2          N  0.60564131  0.31252506  0.00224231    -0.35300
C3          C  0.58997398  0.28898011  0.00411011     0.00900
C4          C  0.60802751  0.26618055  0.49761674     0.06900
C5          C  0.63466306  0.27727562  0.00157947    -0.06200
H6          H  0.56724012  0.28883822  0.00500586     0.07600
H7          H  0.65443558  0.26604210  0.00100241     0.08800
Cu8        Cu  0.59161151  0.35379786  0.00071086     0.44200
Cu9        Cu  0.66510937  0.33438426  0.99801496     0.42000
Cu10       Cu  0.64528538  0.40870299  0.50383854     0.43900
N11         N  0.58313974  0.39655620  0.99851122    -0.34900
N12         N  0.60241456  0.41680460  0.50192187    -0.29100
C13         C  0.58990183  0.44220645  0.50132532    -0.05200
C14         C  0.56111605  0.43818233  0.50019986     0.07000
C15         C  0.55768345  0.40886596  0.99957721     0.00800
H16         H  0.60098254  0.46209865  0.50185426     0.08400
H17         H  0.53794812  0.39759612  0.00161554     0.07500
N18         N  0.68696810  0.39390018  0.99641282    -0.36300
N19         N  0.69356147  0.36780554  0.50126783    -0.28500
C20         C  0.72170946  0.36550274  0.50104851    -0.03700
C21         C  0.73364383  0.39181026  0.99726611     0.04900
C22         C  0.71048046  0.40962937  0.99656170     0.03000
H23         H  0.73339849  0.34507828  0.99842917     0.08100
H24         H  0.71050072  0.43303202  0.50726132     0.06900
N25         N  0.96736845  0.80652214  0.24844607    -0.27500
N26         N  0.99419984  0.81337869  0.25177168    -0.35300
C27         C  0.00963648  0.78969140  0.25370661     0.00900
C28         C  0.99166539  0.76666434  0.25150974     0.06900
C29         C  0.96498551  0.77832699  0.24815974    -0.06200
H30         H  0.03228160  0.78945807  0.25687223     0.07600
H31         H  0.94515017  0.76731582  0.24569308     0.08800
Cu32       Cu  0.00849862  0.85466049  0.25384988     0.44200
Cu33       Cu  0.93507339  0.83567860  0.24537772     0.42000
Cu34       Cu  0.95462337  0.90904020  0.25212799     0.43900
N35         N  0.01707237  0.89752361  0.25487735    -0.34900
N36         N  0.99747035  0.91728175  0.25437043    -0.29100
C37         C  0.00994196  0.94270588  0.25483080    -0.05200
C38         C  0.03874698  0.93875419  0.25563847     0.07000
C39         C  0.04252844  0.90986891  0.25566088     0.00800
H40         H  0.99881692  0.96257197  0.25435226     0.08400
H41         H  0.06229768  0.89860697  0.25600202     0.07500
N42         N  0.91329296  0.89522840  0.24781233    -0.36300
N43         N  0.90627483  0.86836615  0.24500802    -0.28500
C44         C  0.87816035  0.86623615  0.24241284    -0.03700
C45         C  0.86670076  0.89311738  0.24360201     0.04900
C46         C  0.88976934  0.91095237  0.24710325     0.03000
H47         H  0.86705094  0.84641776  0.24026714     0.08100
H48         H  0.88966092  0.93369892  0.24882136     0.06900
N49         N  0.46812230  0.59168163  0.00818874    -0.27500
N50         N  0.49497174  0.58482027  0.00483226    -0.35300
C51         C  0.51044776  0.60850057  0.00276398     0.00900
C52         C  0.49156362  0.63188570  0.50291601     0.06900
C53         C  0.46576634  0.61988329  0.00836734    -0.06200
H54         H  0.53311267  0.60870671  0.99968710     0.07600
H55         H  0.44590678  0.63088483  0.01066368     0.08800
Cu56       Cu  0.50912211  0.54349804  0.00291515     0.44200
Cu57       Cu  0.43576996  0.56245080  0.01155088     0.42000
Cu58       Cu  0.45488110  0.48914465  0.50395966     0.43900
N59         N  0.51767835  0.50065288  0.00235654    -0.34900
N60         N  0.49775458  0.48121661  0.50116624    -0.29100
C61         C  0.51033798  0.45585461  0.50103730    -0.05200
C62         C  0.53911372  0.45994208  0.49977957     0.07000
C63         C  0.54311257  0.48837958  0.99900082     0.00800
H64         H  0.49930711  0.43594550  0.50224835     0.08400
H65         H  0.56279082  0.49968959  0.99609746     0.07500
N66         N  0.41403040  0.50282335  0.01319931    -0.36300
N67         N  0.40652380  0.52983736  0.50991812    -0.28500
C68         C  0.37836433  0.53204464  0.50997618    -0.03700
C69         C  0.36736087  0.50484842  0.01274594     0.04900
C70         C  0.39053809  0.48704941  0.01307453     0.03000
H71         H  0.36752300  0.55156564  0.01179858     0.08100
H72         H  0.38985942  0.46462881  0.50164775     0.06900
O73         O  0.55220331  0.97214680  0.17832044    -0.73100
O74         O  0.55336206  0.97295153  0.32751120    -0.74100
O75         O  0.59465370  0.96740407  0.25125942    -0.62700
O76         O  0.51089353  0.97765535  0.25431837    -0.71100
O77         O  0.50503288  0.93133056  0.25449553    -0.70700
O78         O  0.58892579  0.92105380  0.25292248    -0.62000
O79         O  0.54724400  0.92654141  0.32792838    -0.74500
O80         O  0.54682485  0.92565039  0.17883413    -0.73200
Cu81       Cu  0.55297009  0.97416155  0.25283285     1.04600
Cu82       Cu  0.54680572  0.92451762  0.25352527     1.04300
C83         C  0.54948054  0.94876338  0.15524285     0.93100
C84         C  0.55039912  0.94984883  0.35103278     0.92200
C85         C  0.60505380  0.94258777  0.25179944     0.84300
C86         C  0.49467638  0.95618527  0.25494577     0.90600
O87         O  0.57269774  0.94517045  0.07754853    -0.73100
O88         O  0.57340645  0.94680590  0.42848076    -0.74100
O89         O  0.57874280  0.98760930  0.50548909    -0.62700
O90         O  0.56754039  0.90400725  0.00097473    -0.71100
O91         O  0.52132466  0.91014363  0.00258671    -0.70700
O92         O  0.53259862  0.99425757  0.50412348    -0.62000
O93         O  0.52706235  0.95287395  0.42852676    -0.74500
O94         O  0.52645406  0.95193983  0.07786823    -0.73200
Cu95       Cu  0.57451201  0.94552038  0.50307113     1.04600
Cu96       Cu  0.52503992  0.95228896  0.00330974     1.04300
C97         C  0.54952817  0.94851771  0.10104205     0.93100
C98         C  0.55032746  0.94998972  0.40519023     0.92200
C99         C  0.55693011  0.00422146  0.00514473     0.84300
C100        C  0.54267492  0.89378211  0.00130713     0.90600
N101        N  0.13179876  0.09301482  0.25097075    -0.27500
N102        N  0.10491920  0.08606255  0.25189351    -0.35300
C103        C  0.08931809  0.10964634  0.24990432     0.00900
C104        C  0.10722581  0.13271393  0.24755148     0.06900
C105        C  0.13404590  0.12118062  0.24835659    -0.06200
H106        H  0.06659164  0.10978886  0.25017104     0.07600
H107        H  0.15388071  0.13225222  0.24673332     0.08800
Cu108      Cu  0.09078251  0.04475569  0.25482156     0.44200
Cu109      Cu  0.16429117  0.06395938  0.25267220     0.42000
Cu110      Cu  0.14481487  0.99047750  0.25643652     0.43900
N111        N  0.08231128  0.00188092  0.25579544    -0.34900
N112        N  0.10194347  0.98215140  0.25631068    -0.29100
C113        C  0.08949471  0.95671033  0.25641185    -0.05200
C114        C  0.06067902  0.96063003  0.25594404     0.07000
C115        C  0.05686863  0.98950648  0.25555340     0.00800
H116        H  0.10064323  0.93685533  0.25668053     0.08400
H117        H  0.03708905  0.00074540  0.25498441     0.07500
N118        N  0.18619657  0.00443582  0.25552692    -0.36300
N119        N  0.19320823  0.03132649  0.25412065    -0.28500
C120        C  0.22137280  0.03352505  0.25367476    -0.03700
C121        C  0.23288577  0.00665913  0.25484964     0.04900
C122        C  0.20976489  0.98876956  0.25601880     0.03000
H123        H  0.23245332  0.05337605  0.25257687     0.08100
H124        H  0.20985819  0.96602229  0.25713715     0.06900
O125        O  0.07338178  0.45342612  0.17288470    -0.73100
O126        O  0.07298876  0.45177984  0.32198027    -0.74100
O127        O  0.07815312  0.41064683  0.24521613    -0.62700
O128        O  0.06801074  0.49464934  0.24970039    -0.71100
O129        O  0.02177610  0.48867060  0.24856363    -0.70700
O130        O  0.03188923  0.40483095  0.24621339    -0.62000
O131        O  0.02656158  0.44641582  0.32199703    -0.74500
O132        O  0.02707777  0.44708416  0.17282224    -0.73200
Cu133      Cu  0.07476365  0.45282370  0.24745507     1.04600
Cu134      Cu  0.02521073  0.44656937  0.24739514     1.04300
C135        C  0.05031216  0.45024021  0.14952748     0.93100
C136        C  0.04971760  0.44902431  0.34531296     0.92200
C137        C  0.05667327  0.39444704  0.24487594     0.84300
C138        C  0.04316887  0.50494570  0.24992115     0.90600
O139        O  0.05241549  0.42594109  0.42278658    -0.73100
O140        O  0.05346369  0.42659281  0.07220631    -0.74100
O141        O  0.01117823  0.42133962  0.99901152    -0.62700
O142        O  0.09508340  0.43074843  0.99637681    -0.71100
O143        O  0.08968259  0.47713223  0.99715732    -0.70700
O144        O  0.00568659  0.46770472  0.99759440    -0.62000
O145        O  0.04757167  0.47303029  0.07183680    -0.74500
O146        O  0.04688241  0.47242461  0.42285323    -0.73200
Cu147      Cu  0.05327813  0.42442078  0.99761588     1.04600
Cu148      Cu  0.04750852  0.47410659  0.99728112     1.04300
C149        C  0.04960810  0.44911002  0.39949422     0.93100
C150        C  0.05050067  0.44995793  0.09534689     0.92200
C151        C  0.99513936  0.44294639  0.99872924     0.84300
C152        C  0.10568926  0.45548458  0.99679476     0.90600
C153        C  0.06056431  0.36353245  0.24264070    -0.03500
C154        C  0.08738402  0.35200802  0.23379450    -0.09300
C155        C  0.09115935  0.32284458  0.23170385    -0.17000
C156        C  0.06824282  0.30477953  0.23856994     0.25200
C157        C  0.04142929  0.31600928  0.24718559    -0.18600
C158        C  0.03756942  0.34521562  0.24908539    -0.07500
C159        C  0.07254966  0.27477277  0.23777980    -0.14000
C160        C  0.07750510  0.24986822  0.23806384    -0.13700
C161        C  0.08484456  0.22047204  0.23961068     0.25100
C162        C  0.06400044  0.19978236  0.23631793    -0.19100
C163        C  0.07123042  0.17125992  0.23876419    -0.07600
C164        C  0.09947338  0.16300699  0.24457160    -0.03700
C165        C  0.12025479  0.18406821  0.24760282    -0.09000
C166        C  0.11296378  0.21254070  0.24514112    -0.16600
H167        H  0.10547611  0.36552193  0.22838890     0.11500
H168        H  0.11199835  0.31438017  0.22501060     0.10800
H169        H  0.02354486  0.30220816  0.25266682     0.10700
H170        H  0.01666466  0.35343251  0.25597283     0.11300
H171        H  0.04215124  0.20568398  0.23201243     0.11300
H172        H  0.05462204  0.15580044  0.23599047     0.11300
H173        H  0.14216642  0.17873043  0.25227291     0.11400
H174        H  0.12928103  0.22839323  0.24781704     0.10300
C175        C  0.46377968  0.96022569  0.25621453    -0.03500
C176        C  0.45220870  0.98736313  0.25178015    -0.09300
C177        C  0.42308562  0.99127333  0.25260217    -0.17000
C178        C  0.40507934  0.96817863  0.25801392     0.25200
C179        C  0.41635258  0.94109690  0.26281776    -0.18600
C180        C  0.44551982  0.93711165  0.26186669    -0.07500
C181        C  0.37508780  0.97244179  0.25810554    -0.14000
C182        C  0.35018266  0.97725838  0.25755047    -0.13700
C183        C  0.32075765  0.98443265  0.25652376     0.25100
C184        C  0.30023487  0.96333255  0.25738897    -0.19100
C185        C  0.27168366  0.97048265  0.25666271    -0.07600
C186        C  0.26322125  0.99890655  0.25507513    -0.03700
C187        C  0.28413283  0.01991388  0.25393960    -0.09000
C188        C  0.31262032  0.01270114  0.25467102    -0.16600
H189        H  0.46564951  0.00560041  0.24736981     0.11500
H190        H  0.41460425  0.01232713  0.24884544     0.10800
H191        H  0.40261079  0.92305997  0.26710697     0.10700
H192        H  0.45375445  0.91597277  0.26558675     0.11300
H193        H  0.30628537  0.94135782  0.25872829     0.11300
H194        H  0.25637523  0.95366344  0.25748228     0.11300
H195        H  0.27868392  0.04198111  0.25260913     0.11400
H196        H  0.32832760  0.02923070  0.25388971     0.10300
C197        C  0.53851046  0.86286525  0.00021396    -0.03500
C198        C  0.56020010  0.84458834  0.48970557    -0.09300
C199        C  0.55577876  0.81546739  0.48745609    -0.17000
C200        C  0.52867143  0.80448601  0.49361218     0.25200
C201        C  0.50746816  0.82221552  0.00585035    -0.18600
C202        C  0.51148471  0.85136942  0.00673722    -0.07500
C203        C  0.52402614  0.77451669  0.49228910    -0.14000
C204        C  0.51918996  0.74957690  0.49247943    -0.13700
C205        C  0.51233379  0.72005075  0.49434503     0.25100
C206        C  0.48598093  0.71137088  0.00263173    -0.19100
C207        C  0.47895058  0.68281045  0.00439202    -0.07600
C208        C  0.49880764  0.66231200  0.49996776    -0.03700
C209        C  0.52621171  0.67102494  0.48715444    -0.09000
C210        C  0.53289326  0.69968406  0.48436574    -0.16600
H211        H  0.58135072  0.85260200  0.48479470     0.11500
H212        H  0.57348707  0.80153723  0.48108826     0.10800
H213        H  0.48649739  0.81377863  0.01116581     0.10700
H214        H  0.49344108  0.86488517  0.01278390     0.11300
H215        H  0.46940182  0.72701995  0.00362503     0.11300
H216        H  0.45694896  0.67724210  0.00661495     0.11300
H217        H  0.54254375  0.65581177  0.47902499     0.11400
H218        H  0.55410637  0.70594363  0.47454712     0.10300
C219        C  0.33710565  0.49693597  0.01123598    -0.03500
C220        C  0.31605418  0.51758324  0.01695021    -0.09300
C221        C  0.28761793  0.51024893  0.01487132    -0.17000
C222        C  0.27969408  0.48221520  0.00708085     0.25200
C223        C  0.29957074  0.46276599  0.49167119    -0.18600
C224        C  0.32812993  0.46976392  0.49388982    -0.07500
C225        C  0.25031930  0.47495432  0.00448137    -0.14000
C226        C  0.22542591  0.47021016  0.00243352    -0.13700
C227        C  0.19540969  0.46629220  0.00042893     0.25100
C228        C  0.18328561  0.44121610  0.48759311    -0.19100
C229        C  0.15410961  0.43745985  0.48757587    -0.07600
C230        C  0.13663288  0.45914838  0.99737825    -0.03700
C231        C  0.14841185  0.48599040  0.00497696    -0.09000
C232        C  0.17756644  0.48949314  0.00658174    -0.16600
H233        H  0.32139129  0.53943267  0.02320130     0.11500
H234        H  0.27178236  0.52650180  0.01927425     0.10800
H235        H  0.29348900  0.44128456  0.48328470     0.10700
H236        H  0.34345955  0.45337769  0.48686795     0.11300
H237        H  0.19691962  0.42322092  0.48158218     0.11300
H238        H  0.14575877  0.41652271  0.48141367     0.11300
H239        H  0.13509987  0.50428932  0.01012540     0.11400
H240        H  0.18620048  0.51032779  0.01275505     0.10300
C241        C  0.83642787  0.90090067  0.24210459    -0.03500
C242        C  0.81577287  0.88023260  0.23335552    -0.09300
C243        C  0.78726728  0.88735108  0.23319006    -0.17000
C244        C  0.77888746  0.91519223  0.24168208     0.25200
C245        C  0.79918760  0.93601553  0.24974464    -0.18600
C246        C  0.82775764  0.92895478  0.24993338    -0.07500
C247        C  0.74941989  0.92210232  0.24324106    -0.14000
C248        C  0.72450796  0.92674014  0.24522911    -0.13700
C249        C  0.69456878  0.93102901  0.24783400     0.25100
C250        C  0.68290467  0.95697010  0.23457960    -0.19100
C251        C  0.65375843  0.96086847  0.23634437    -0.07600
C252        C  0.63591516  0.93874377  0.25099886    -0.03700
C253        C  0.64784482  0.91281220  0.26452840    -0.09000
C254        C  0.67698821  0.90903707  0.26311518    -0.16600
H255        H  0.82145606  0.85849534  0.22671015     0.11500
H256        H  0.77172973  0.87105687  0.22680521     0.10800
H257        H  0.79293250  0.95765629  0.25637165     0.10700
H258        H  0.84290338  0.94547184  0.25685685     0.11300
H259        H  0.69631710  0.97413069  0.22265541     0.11300
H260        H  0.64516922  0.98104284  0.22557998     0.11300
H261        H  0.63465665  0.89546777  0.27634191     0.11400
H262        H  0.68579824  0.88890066  0.27362228     0.10300
C263        C  0.03898670  0.53582951  0.25193038    -0.03500
C264        C  0.06165108  0.55413699  0.26125536    -0.09300
C265        C  0.05740212  0.58330179  0.26331870    -0.17000
C266        C  0.03050942  0.59447075  0.25589227     0.25200
C267        C  0.00788960  0.57640520  0.24672128    -0.18600
C268        C  0.01204778  0.54730728  0.24484877    -0.07500
C269        C  0.02593635  0.62442853  0.25699227    -0.14000
C270        C  0.02080605  0.64929366  0.25683772    -0.13700
C271        C  0.01358143  0.67871729  0.25574674     0.25100
C272        C  0.98534068  0.68692274  0.25669042    -0.19100
C273        C  0.97819386  0.71546242  0.25528591    -0.07600
C274        C  0.99923877  0.73629313  0.25288565    -0.03700
C275        C  0.02760057  0.72774365  0.25188904    -0.09000
C276        C  0.03468059  0.69917346  0.25330326    -0.16600
H277        H  0.08261157  0.54593100  0.26714338     0.11500
H278        H  0.07505976  0.59710699  0.27051699     0.10800
H279        H  0.98699602  0.58482848  0.24086422     0.10700
H280        H  0.99417793  0.53381928  0.23755074     0.11300
H281        H  0.96881655  0.67124636  0.25851641     0.11300
H282        H  0.95615921  0.72104532  0.25631356     0.11300
H283        H  0.04442705  0.74299724  0.24978972     0.11400
H284        H  0.05662458  0.69304618  0.25239632     0.10300
C285        C  0.76391777  0.39973924  0.99786887    -0.03500
C286        C  0.78498843  0.37896261  0.99435902    -0.09300
C287        C  0.81342589  0.38640352  0.99502347    -0.17000
C288        C  0.82132165  0.41468733  0.99919463     0.25200
C289        C  0.80089088  0.43428315  0.51670710    -0.18600
C290        C  0.77230824  0.42726291  0.51681256    -0.07500
C291        C  0.85067471  0.42214493  0.99997682    -0.14000
C292        C  0.87553157  0.42718865  0.00050563    -0.13700
C293        C  0.90550686  0.43150260  0.00087438     0.25100
C294        C  0.91649960  0.45703144  0.49398286    -0.19100
C295        C  0.94563641  0.46108089  0.49301860    -0.07600
C296        C  0.96422731  0.43916445  0.99978645    -0.03700
C297        C  0.95255244  0.41241916  0.00861902    -0.09000
C298        C  0.92341554  0.40866165  0.00923762    -0.16600
H299        H  0.77967530  0.35690122  0.99090261     0.11500
H300        H  0.82926963  0.37006762  0.99226712     0.10800
H301        H  0.80724381  0.45541831  0.52705805     0.10700
H302        H  0.75719349  0.44321757  0.52757284     0.11300
H303        H  0.90267088  0.47480835  0.48801997     0.11300
H304        H  0.95376645  0.48202092  0.48624688     0.11300
H305        H  0.96592388  0.39437239  0.01511908     0.11400
H306        H  0.91485159  0.38787699  0.01599523     0.10300
C307        C  0.56102701  0.03511063  0.00670750    -0.03500
C308        C  0.58772313  0.04653690  0.01652274    -0.09300
C309        C  0.59168672  0.07569410  0.01762592    -0.17000
C310        C  0.56908942  0.09381741  0.00874313     0.25200
C311        C  0.54401014  0.08266538  0.49532348    -0.18600
C312        C  0.53957884  0.05355109  0.49623240    -0.07500
C313        C  0.57353709  0.12378775  0.00852768    -0.14000
C314        C  0.57837603  0.14870030  0.00778139    -0.13700
C315        C  0.58551819  0.17813033  0.00645171     0.25100
C316        C  0.56618409  0.19824197  0.50852171    -0.19100
C317        C  0.57291797  0.22692207  0.50769762    -0.07600
C318        C  0.60062363  0.23577974  0.49764498    -0.03700
C319        C  0.62004721  0.21480647  0.99243294    -0.09000
C320        C  0.61280671  0.18630316  0.99336054    -0.16600
H321        H  0.60555657  0.03295360  0.02341851     0.11500
H322        H  0.61241911  0.08409908  0.02509358     0.10800
H323        H  0.52656020  0.09658720  0.48744153     0.10700
H324        H  0.51870068  0.04552805  0.48886031     0.11300
H325        H  0.54479556  0.19183920  0.51667154     0.11300
H326        H  0.55644068  0.24203383  0.51552864     0.11300
H327        H  0.64126883  0.22043219  0.98180476     0.09400
H328        H  0.62852689  0.17062181  0.98388293     0.10300
N329        N  0.63228275  0.30608876  0.49766784    -0.27500
N330        N  0.60536441  0.31286257  0.49914567    -0.35300
C331        C  0.58992949  0.28912603  0.49921058     0.00900
C332        C  0.60783004  0.26587353  0.00364691     0.06900
C333        C  0.63474109  0.27791330  0.49666932    -0.06200
H334        H  0.56720221  0.28876924  0.50014279     0.07600
H335        H  0.65465334  0.26693861  0.49599266     0.08800
Cu336      Cu  0.59118758  0.35415181  0.50096098     0.44200
Cu337      Cu  0.66458090  0.33531779  0.49817532     0.42000
Cu338      Cu  0.64559785  0.40789170  0.99580367     0.43900
N339        N  0.58283659  0.39701907  0.50112076    -0.34900
N340        N  0.60273496  0.41628769  0.99659250    -0.29100
C341        C  0.59022975  0.44170256  0.99635236    -0.05200
C342        C  0.56142925  0.43772032  0.99831302     0.07000
C343        C  0.55737838  0.40931194  0.50010831     0.00800
H344        H  0.60132810  0.46157819  0.99543023     0.08400
H345        H  0.53763580  0.39801233  0.49934244     0.07500
N346        N  0.68662598  0.39470547  0.50391189    -0.36300
N347        N  0.69404750  0.36701239  0.99702964    -0.28500
C348        C  0.72222538  0.36489410  0.99753253    -0.03700
C349        C  0.73324885  0.39229113  0.50372569     0.04900
C350        C  0.71023967  0.41027415  0.50559958     0.03000
H351        H  0.73281408  0.34564738  0.49932608     0.08100
H352        H  0.71050736  0.43239229  0.99610753     0.06900
N353        N  0.96657951  0.80591322  0.75235252    -0.27500
N354        N  0.99347524  0.81278572  0.75313188    -0.35300
C355        C  0.00896124  0.78911575  0.75448013     0.00900
C356        C  0.99094253  0.76610742  0.75460242     0.06900
C357        C  0.96419272  0.77772627  0.75323946    -0.06200
H358        H  0.03167717  0.78886122  0.75564014     0.07600
H359        H  0.94433272  0.76666692  0.75250853     0.08800
Cu360      Cu  0.00774916  0.85407318  0.75245767     0.44200
Cu361      Cu  0.93429655  0.83506412  0.74994281     0.42000
Cu362      Cu  0.95389807  0.90855790  0.75113540     0.43900
N363        N  0.01636558  0.89691609  0.75202491    -0.34900
N364        N  0.99680150  0.91671575  0.75165722    -0.29100
C365        C  0.00934344  0.94210769  0.75145563    -0.05200
C366        C  0.03814785  0.93808389  0.75174457     0.07000
C367        C  0.04185613  0.90919603  0.75210207     0.00800
H368        H  0.99826496  0.96200211  0.75116026     0.08400
H369        H  0.06159776  0.89788542  0.75240847     0.07500
N370        N  0.91253963  0.89462112  0.74865038    -0.36300
N371        N  0.90553144  0.86770843  0.74775292    -0.28500
C372        C  0.87741771  0.86548683  0.74538195    -0.03700
C373        C  0.86598145  0.89233904  0.74481834     0.04900
C374        C  0.88899023  0.91028437  0.74704239     0.03000
H375        H  0.86623960  0.84566216  0.74471244     0.08100
H376        H  0.88878142  0.93305366  0.74697544     0.06900
N377        N  0.46756855  0.59189095  0.50819693    -0.27500
N378        N  0.49438688  0.58518251  0.50326203    -0.35300
C379        C  0.50964893  0.60895610  0.49992931     0.00900
C380        C  0.49247930  0.63155829  0.00489285     0.06900
C381        C  0.46502168  0.62007458  0.50824822    -0.06200
H382        H  0.53225641  0.60933791  0.49552736     0.07600
H383        H  0.44512488  0.63098388  0.51100019     0.08800
Cu384      Cu  0.50867984  0.54391036  0.50054409     0.44200
Cu385      Cu  0.43542787  0.56248700  0.51202920     0.42000
Cu386      Cu  0.45541244  0.48897006  0.01132379     0.43900
N387        N  0.51726765  0.50105860  0.49993852    -0.34900
N388        N  0.49819772  0.48085491  0.00561294    -0.29100
C389        C  0.51073618  0.45546862  0.00436374    -0.05200
C390        C  0.53944971  0.45950599  0.00018114     0.07000
C391        C  0.54277539  0.48882481  0.49907533     0.00800
H392        H  0.49972421  0.43557588  0.00653424     0.08400
H393        H  0.56249629  0.50016704  0.49834588     0.07500
N394        N  0.41353383  0.50298012  0.50666023    -0.36300
N395        N  0.40691607  0.52970686  0.01304655    -0.28500
C396        C  0.37873439  0.53178094  0.01278887    -0.03700
C397        C  0.36688455  0.50522966  0.50656647     0.04900
C398        C  0.38997985  0.48734346  0.50456595     0.03000
H399        H  0.36724746  0.55188261  0.51154629     0.08100
H400        H  0.39052002  0.46428403  0.01286664     0.06900
O401        O  0.55169785  0.97180972  0.67831022    -0.73100
O402        O  0.55292464  0.97254663  0.82749155    -0.74100
O403        O  0.59416527  0.96695497  0.75123280    -0.62700
O404        O  0.51039125  0.97736218  0.75427557    -0.71100
O405        O  0.50443445  0.93105080  0.75415057    -0.70700
O406        O  0.58828556  0.92062536  0.75310036    -0.62000
O407        O  0.54653006  0.92617688  0.82791489    -0.74500
O408        O  0.54635462  0.92530985  0.67872786    -0.73200
Cu409      Cu  0.55248211  0.97379064  0.75281260     1.04600
Cu410      Cu  0.54619195  0.92416534  0.75345418     1.04300
C411        C  0.54901995  0.94843891  0.65517959     0.93100
C412        C  0.54987162  0.94945966  0.85102718     0.92200
C413        C  0.60448135  0.94210566  0.75196041     0.84300
C414        C  0.49412473  0.95592406  0.75463561     0.90600
O415        O  0.57239182  0.94469853  0.57765671    -0.73100
O416        O  0.57316499  0.94679124  0.92829768    -0.74100
O417        O  0.57829751  0.98787960  0.00501039    -0.62700
O418        O  0.56700684  0.90387438  0.50048622    -0.71100
O419        O  0.52086146  0.91054548  0.50167400    -0.70700
O420        O  0.53207678  0.99400375  0.00401756    -0.62000
O421        O  0.52675003  0.95226598  0.92877894    -0.74500
O422        O  0.52623351  0.95201387  0.57760635    -0.73200
Cu423      Cu  0.57455490  0.94575349  0.00293414     1.04600
Cu424      Cu  0.52507729  0.95264172  0.50301372     1.04300
C425        C  0.54919428  0.94824867  0.60096824     0.93100
C426        C  0.54996757  0.94961741  0.90521074     0.92200
C427        C  0.55756473  0.00419511  0.50522882     0.84300
C428        C  0.54202344  0.89394462  0.50020973     0.90600
N429        N  0.13125651  0.09227333  0.75225164    -0.27500
N430        N  0.10437117  0.08536040  0.75119755    -0.35300
C431        C  0.08883748  0.10901656  0.74977627     0.00900
C432        C  0.10681670  0.13205769  0.74996139     0.06900
C433        C  0.13358100  0.12047127  0.75156577    -0.06200
H434        H  0.06611566  0.10926562  0.74891588     0.07600
H435        H  0.15342799  0.13156310  0.75166285     0.08800
Cu436      Cu  0.09026887  0.04399964  0.75144054     0.44200
Cu437      Cu  0.16366735  0.06314436  0.75423780     0.42000
Cu438      Cu  0.14432735  0.98960025  0.75531007     0.43900
N439        N  0.08184700  0.00110805  0.75187842    -0.34900
N440        N  0.10143806  0.98135358  0.75335292    -0.29100
C441        C  0.08893763  0.95593362  0.75338545    -0.05200
C442        C  0.06013964  0.95990014  0.75189025     0.07000
C443        C  0.05639418  0.98877332  0.75094298     0.00800
H444        H  0.10003403  0.93606361  0.75454923     0.08400
H445        H  0.03664462  0.00004358  0.74976011     0.07500
N446        N  0.18569620  0.00364598  0.75622509    -0.36300
N447        N  0.19264423  0.03058206  0.75609831    -0.28500
C448        C  0.22080387  0.03286537  0.75679467    -0.03700
C449        C  0.23231130  0.00603565  0.75723147     0.04900
C450        C  0.20931307  0.98803860  0.75681414     0.03000
H451        H  0.23197587  0.05269087  0.75627412     0.08100
H452        H  0.20960522  0.96527199  0.75727520     0.06900
O453        O  0.07328746  0.45323959  0.67272707    -0.73100
O454        O  0.07327825  0.45150644  0.82179787    -0.74100
O455        O  0.07846890  0.41040457  0.74500558    -0.62700
O456        O  0.06782255  0.49436057  0.74959056    -0.71100
O457        O  0.02161285  0.48815608  0.74891503    -0.70700
O458        O  0.03223373  0.40438133  0.74618169    -0.62000
O459        O  0.02689337  0.44579607  0.82218608    -0.74500
O460        O  0.02700365  0.44675621  0.67293856    -0.73200
Cu461      Cu  0.07483880  0.45258166  0.74726866     1.04600
Cu462      Cu  0.02531855  0.44607590  0.74755604     1.04300
C463        C  0.05017548  0.45006956  0.64950333     0.93100
C464        C  0.05009827  0.44854588  0.84532247     0.92200
C465        C  0.05706214  0.39410389  0.74485626     0.84300
C466        C  0.04292930  0.50453496  0.75003804     0.90600
O467        O  0.05264428  0.42551366  0.92294140    -0.73100
O468        O  0.05351234  0.42670778  0.57195729    -0.74100
O469        O  0.01115489  0.42097873  0.49905604    -0.62700
O470        O  0.09480817  0.43170033  0.49575148    -0.71100
O471        O  0.08885068  0.47802050  0.49687293    -0.70700
O472        O  0.00506796  0.46727686  0.49800638    -0.62000
O473        O  0.04699000  0.47306192  0.57200701    -0.74500
O474        O  0.04777706  0.47206821  0.92276116    -0.73200
Cu475      Cu  0.05317930  0.42471400  0.49738132     1.04600
Cu476      Cu  0.04674320  0.47432455  0.49741409     1.04300
C477        C  0.05013381  0.44868197  0.89951885     0.93100
C478        C  0.05026327  0.44996276  0.59531201     0.92200
C479        C  0.99484976  0.44238115  0.49903391     0.84300
C480        C  0.10510188  0.45656411  0.49596914     0.90600
C481        C  0.06106616  0.36318829  0.74311525    -0.03500
C482        C  0.08793283  0.35167647  0.73466596    -0.09300
C483        C  0.09181575  0.32250278  0.73352954    -0.17000
C484        C  0.06895748  0.30442516  0.74096547     0.25200
C485        C  0.04209594  0.31564965  0.74906699    -0.18600
C486        C  0.03813125  0.34484957  0.75001572    -0.07500
C487        C  0.07332322  0.27441867  0.74127054    -0.14000
C488        C  0.07810540  0.24948412  0.74232739    -0.13700
C489        C  0.08511343  0.22000935  0.74435745     0.25100
C490        C  0.06466754  0.19951178  0.73494477    -0.19100
C491        C  0.07164108  0.17090522  0.73693352    -0.07600
C492        C  0.09922581  0.16240071  0.74830457    -0.03700
C493        C  0.11957700  0.18324624  0.75783024    -0.09000
C494        C  0.11254370  0.21179783  0.75586658    -0.16600
H495        H  0.10598208  0.36520647  0.72894122     0.11500
H496        H  0.11269120  0.31404648  0.72718993     0.10800
H497        H  0.02425245  0.30184733  0.75494527     0.10700
H498        H  0.01719235  0.35304822  0.75662689     0.11300
H499        H  0.04335827  0.20562794  0.72596035     0.11300
H500        H  0.05544528  0.15556068  0.72906287     0.11300
H501        H  0.14092828  0.17763316  0.76714792     0.11400
H502        H  0.12853171  0.22748640  0.76336350     0.10300
C503        C  0.46322443  0.96001457  0.75561565    -0.03500
C504        C  0.45170914  0.98720469  0.75169695    -0.09300
C505        C  0.42258840  0.99116701  0.75241482    -0.17000
C506        C  0.40452367  0.96807093  0.75718330     0.25200
C507        C  0.41573987  0.94092542  0.76131937    -0.18600
C508        C  0.44490293  0.93689000  0.76048344    -0.07500
C509        C  0.37453489  0.97241249  0.75764384    -0.14000
C510        C  0.34961886  0.97722138  0.75778352    -0.13700
C511        C  0.32013834  0.98423903  0.75791703     0.25100
C512        C  0.30008331  0.96418921  0.74388545    -0.19100
C513        C  0.27148892  0.97118754  0.74385401    -0.07600
C514        C  0.26258405  0.99841435  0.75765293    -0.03700
C515        C  0.28294515  0.01840369  0.77165117    -0.09000
C516        C  0.31147964  0.01132810  0.77183024    -0.16600
H517        H  0.46519372  0.00545113  0.74786116     0.11500
H518        H  0.41415637  0.01227050  0.74918386     0.10800
H519        H  0.40195755  0.92288294  0.76510328     0.10700
H520        H  0.45308616  0.91570437  0.76373765     0.11300
H521        H  0.30654086  0.94318009  0.73285897     0.11300
H522        H  0.25645511  0.95536293  0.73242813     0.11300
H523        H  0.27689523  0.03944918  0.78294466     0.11400
H524        H  0.32680663  0.02702267  0.78282146     0.10300
C525        C  0.53750931  0.86309634  0.49799946    -0.03500
C526        C  0.56140305  0.84451356  0.99262281    -0.09300
C527        C  0.55730703  0.81532211  0.99157650    -0.17000
C528        C  0.53032899  0.80411854  0.99827492     0.25200
C529        C  0.50600081  0.82273896  0.50182595    -0.18600
C530        C  0.51034288  0.85183130  0.50390774    -0.07500
C531        C  0.52596110  0.77409825  0.99784510    -0.14000
C532        C  0.52117118  0.74914933  0.99829429    -0.13700
C533        C  0.51415059  0.71964910  0.99968108     0.25100
C534        C  0.48504577  0.71164742  0.50697434    -0.19100
C535        C  0.47830744  0.68304608  0.50978465    -0.07600
C536        C  0.50003271  0.66197068  0.00321780    -0.03700
C537        C  0.52835145  0.67057525  0.00027062    -0.09000
C538        C  0.53531923  0.69919669  0.99851602    -0.16600
H539        H  0.58245835  0.85270133  0.98733267     0.11500
H540        H  0.57515923  0.80151603  0.98566613     0.10800
H541        H  0.48493490  0.81447031  0.50676401     0.10700
H542        H  0.49244493  0.86547611  0.51041248     0.11300
H543        H  0.46896381  0.72723083  0.51491431     0.11300
H544        H  0.45706192  0.67733282  0.52004834     0.11300
H545        H  0.54522398  0.65533250  0.99935199     0.11400
H546        H  0.55722508  0.70536091  0.99631868     0.10300
C547        C  0.33659062  0.49757164  0.50455864    -0.03500
C548        C  0.31572496  0.51811015  0.51308628    -0.09300
C549        C  0.28724128  0.51105778  0.51085077    -0.17000
C550        C  0.27907945  0.48341878  0.50009642     0.25200
C551        C  0.30038296  0.46146518  0.00158028    -0.18600
C552        C  0.32887666  0.46874009  0.00365844    -0.07500
C553        C  0.24964821  0.47647154  0.49775811    -0.14000
C554        C  0.22470935  0.47197065  0.49638091    -0.13700
C555        C  0.19470384  0.46801191  0.49557016     0.25100
C556        C  0.18393770  0.43949440  0.99252534    -0.19100
C557        C  0.15472702  0.43591001  0.99109569    -0.07600
C558        C  0.13598248  0.46052168  0.49537576    -0.03700
C559        C  0.14768078  0.48739642  0.50298496    -0.09000
C560        C  0.17683790  0.49107256  0.50318663    -0.16600
H561        H  0.32123623  0.53965253  0.52175158     0.11500
H562        H  0.27155145  0.52721566  0.51754385     0.10800
H563        H  0.29450640  0.43968517  0.99548932     0.10700
H564        H  0.34434273  0.45224206  0.99885246     0.11300
H565        H  0.19754681  0.42137819  0.98763333     0.11300
H566        H  0.14632559  0.41498050  0.98507308     0.11300
H567        H  0.13431860  0.50555771  0.50921140     0.11400
H568        H  0.18545443  0.51190663  0.50944359     0.10300
C569        C  0.83575353  0.90000163  0.74289007    -0.03500
C570        C  0.81548207  0.87981374  0.72933133    -0.09300
C571        C  0.78692792  0.88675836  0.72891862    -0.17000
C572        C  0.77818540  0.91393293  0.74205920     0.25200
C573        C  0.79816414  0.93428677  0.75493676    -0.18600
C574        C  0.82676539  0.92741084  0.75527401    -0.07500
C575        C  0.74867498  0.92063123  0.74354583    -0.14000
C576        C  0.72378987  0.92538588  0.74558268    -0.13700
C577        C  0.69390160  0.92995794  0.74829992     0.25100
C578        C  0.68242732  0.95590880  0.73457574    -0.19100
C579        C  0.65330865  0.96003586  0.73630946    -0.07600
C580        C  0.63531908  0.93812366  0.75138691    -0.03700
C581        C  0.64706980  0.91221495  0.76550578    -0.09000
C582        C  0.67617635  0.90821656  0.76413166    -0.16600
H583        H  0.82157935  0.85863034  0.71895594     0.11500
H584        H  0.77164538  0.87084756  0.71874889     0.10800
H585        H  0.79161839  0.95538713  0.76525177     0.10700
H586        H  0.84170198  0.94344315  0.76614465     0.11300
H587        H  0.69596227  0.97288467  0.72226178     0.11300
H588        H  0.64485181  0.98019243  0.72512890     0.11300
H589        H  0.63376372  0.89504653  0.77770283     0.11400
H590        H  0.68484166  0.88808859  0.77504636     0.10300
C591        C  0.03862402  0.53539977  0.75204801    -0.03500
C592        C  0.06124437  0.55376874  0.76130539    -0.09300
C593        C  0.05690694  0.58291043  0.76353353    -0.17000
C594        C  0.02996756  0.59400400  0.75632786     0.25200
C595        C  0.00739335  0.57588621  0.74709904    -0.18600
C596        C  0.01164100  0.54679931  0.74506873    -0.07500
C597        C  0.02530427  0.62393872  0.75788709    -0.14000
C598        C  0.02016448  0.64880006  0.75825949    -0.13700
C599        C  0.01295123  0.67822881  0.75782096     0.25100
C600        C  0.98500659  0.68656443  0.76497783    -0.19100
C601        C  0.97783006  0.71510262  0.76398624    -0.07600
C602        C  0.99855249  0.73577487  0.75579739    -0.03700
C603        C  0.02661396  0.72711654  0.74866604    -0.09000
C604        C  0.03372528  0.69854991  0.74965266    -0.16600
H605        H  0.08223948  0.54562487  0.76707786     0.11500
H606        H  0.07452951  0.59675670  0.77075539     0.10800
H607        H  0.98646449  0.58425687  0.74139187     0.10700
H608        H  0.99380839  0.53325907  0.73778332     0.11300
H609        H  0.96873798  0.67099179  0.77129445     0.11300
H610        H  0.95606408  0.72084361  0.76996042     0.11300
H611        H  0.04312599  0.74228930  0.74187767     0.11400
H612        H  0.05541933  0.69231526  0.74386844     0.10300
C613        C  0.76353948  0.39990010  0.50372098    -0.03500
C614        C  0.78406225  0.37981347  0.49045888    -0.09300
C615        C  0.81257407  0.38689103  0.49030797    -0.17000
C616        C  0.82106743  0.41410733  0.50344458     0.25200
C617        C  0.80062468  0.43554227  0.00265778    -0.18600
C618        C  0.77214407  0.42816112  0.00200513    -0.07500
C619        C  0.85051531  0.42111071  0.50342237    -0.14000
C620        C  0.87542622  0.42583099  0.50311039    -0.13700
C621        C  0.90537694  0.43018320  0.50248366     0.25100
C622        C  0.91687823  0.45825181  0.99228169    -0.19100
C623        C  0.94606802  0.46209907  0.99186556    -0.07600
C624        C  0.96400410  0.43825253  0.50030967    -0.03700
C625        C  0.95259637  0.41136119  0.50887030    -0.09000
C626        C  0.92348467  0.40739638  0.51002511    -0.16600
H627        H  0.77820299  0.35864368  0.47969430     0.11500
H628        H  0.82800674  0.37111503  0.47989405     0.10800
H629        H  0.80648860  0.45752115  0.00593864     0.10700
H630        H  0.75670094  0.44479445  0.00497845     0.11300
H631        H  0.90321344  0.47608320  0.98570725     0.11300
H632        H  0.95440521  0.48293807  0.98490821     0.11300
H633        H  0.96615012  0.39338852  0.51484092     0.11400
H634        H  0.91509868  0.38652841  0.51667705     0.10300
C635        C  0.56200588  0.03504728  0.50575767    -0.03500
C636        C  0.58883929  0.04631481  0.51497327    -0.09300
C637        C  0.59318197  0.07542670  0.51428874    -0.17000
C638        C  0.57082677  0.09364945  0.50420545     0.25200
C639        C  0.54240506  0.08267926  0.99923230    -0.18600
C640        C  0.53835086  0.05350078  0.99835454    -0.07500
C641        C  0.57556530  0.12356511  0.50247690    -0.14000
C642        C  0.58030748  0.14848868  0.50092016    -0.13700
C643        C  0.58699613  0.17803041  0.49925206     0.25100
C644        C  0.56540222  0.19860560  0.01843859    -0.19100
C645        C  0.57258363  0.22717206  0.01745972    -0.07600
C646        C  0.60003979  0.23561635  0.00454807    -0.03700
C647        C  0.62131375  0.21521426  0.48802053    -0.09000
C648        C  0.61452354  0.18659134  0.48884464    -0.16600
H649        H  0.60649628  0.03264060  0.52265213     0.11500
H650        H  0.61401186  0.08371038  0.52131783     0.10800
H651        H  0.52477464  0.09653076  0.99223712     0.10700
H652        H  0.51756034  0.04535218  0.99065092     0.11300
H653        H  0.54421295  0.19249803  0.02869794     0.11300
H654        H  0.55668016  0.24253403  0.02733376     0.11300
H655        H  0.64277778  0.22108910  0.47966342     0.09400
H656        H  0.63079638  0.17112026  0.48150359     0.10300
loop_ 
_geom_bond_atom_site_label_1 
_geom_bond_atom_site_label_2 
_geom_bond_distance 
_geom_bond_site_symmetry_2 
_ccdc_geom_bond_type 
N1            N2   1.321       .  A
N1            C5   1.343       .  A
N1           Cu9   2.073   1_554  S
N2            C3   1.345       .  A
N2           Cu8   2.071       .  S
C3            H6   1.081       .  S
C3          C332   1.387       .  A
C4          C331   1.389       .  A
C4          C333   1.388       .  A
C4          C318   1.486       .  S
C5            H7   1.081       .  S
C5          C332   1.387       .  A
Cu8          N11   2.071   1_554  S
Cu9         N347   2.073       .  S
Cu10         N12   2.076       .  S
Cu10        N346   2.076       .  S
N11         N340   1.323       .  A
N11          C15   1.345       .  A
N12         N339   1.323       .  A
N12          C13   1.345       .  A
C13          H16   1.082       .  S
C13          C14   1.383       .  A
C14         C343   1.382       .  A
C14          C62   1.471       .  S
C15          H17   1.082   1_556  S
C15         C342   1.382       .  A
N18         N347   1.321       .  A
N18          C22   1.345       .  A
N18        Cu338   2.077       .  S
N19         N346   1.321       .  A
N19          C20   1.343       .  A
N19        Cu337   2.071       .  S
C20         H351   1.081       .  S
C20         C349   1.387       .  A
C21          C22   1.389       .  A
C21         C348   1.389       .  A
C21         C285   1.489       .  S
C22         H352   1.081       .  S
H23         C348   1.081       .  S
H24         C350   1.081       .  S
N25          N26   1.321       .  A
N25          C29   1.344       .  A
N25         Cu33   2.070       .  S
N26          C27   1.345   1_655  A
N26         Cu32   2.076   1_655  S
C27          H30   1.081       .  S
C27          C28   1.389   1_455  A
C28          C29   1.388       .  A
C28         C274   1.487       .  S
C29          H31   1.081       .  S
Cu32         N35   2.076       .  S
Cu33         N43   2.070       .  S
Cu34         N36   2.076       .  S
Cu34         N42   2.076       .  S
N35          N36   1.323   1_455  A
N35          C39   1.346       .  A
N36          C37   1.345   1_655  A
C37          H40   1.082   1_455  S
C37          C38   1.383       .  A
C38          C39   1.383       .  A
C38         C114   1.472       .  S
C39          H41   1.082       .  S
N42          N43   1.320       .  A
N42          C46   1.345       .  A
N43          C44   1.343       .  A
C44          H47   1.081       .  S
C44          C45   1.388       .  A
C45          C46   1.389       .  A
C45         C241   1.487       .  S
C46          H48   1.081       .  S
N49          N50   1.320       .  A
N49          C53   1.344       .  A
N49         Cu57   2.074       .  S
N50          C51   1.345       .  A
N50         Cu56   2.075       .  S
C51          H54   1.081   1_554  S
C51         C380   1.390       .  A
C52         C379   1.389       .  A
C52         C381   1.388       .  A
C52         C208   1.488       .  S
C53          H55   1.081       .  S
C53         C380   1.389       .  A
Cu56         N59   2.075       .  S
Cu57        N395   2.074       .  S
Cu58         N60   2.074       .  S
Cu58        N394   2.074       .  S
N59         N388   1.323       .  A
N59          C63   1.345   1_554  A
N60         N387   1.323       .  A
N60          C61   1.345       .  A
C61          H64   1.082       .  S
C61          C62   1.383       .  A
C62         C391   1.383       .  A
C63          H65   1.082       .  S
C63         C390   1.383   1_556  A
N66         N395   1.321       .  A
N66          C70   1.345       .  A
N66        Cu386   2.075       .  S
N67         N394   1.320       .  A
N67          C68   1.343       .  A
N67        Cu385   2.073       .  S
C68         H399   1.081       .  S
C68         C397   1.388       .  A
C69          C70   1.389       .  A
C69         C396   1.389       .  A
C69         C219   1.488       .  S
C70         H400   1.081       .  S
H71         C396   1.081       .  S
H72         C398   1.081       .  S
O73         Cu81   2.007       .  S
O73          C83   1.276       .  A
O74         Cu81   2.010       .  S
O74          C84   1.277       .  A
O75         Cu81   2.009       .  S
O75          C85   1.278       .  A
O76         Cu81   2.008       .  S
O76          C86   1.279       .  A
O77         Cu82   2.013       .  S
O77          C86   1.279       .  A
O78         Cu82   2.010       .  S
O78          C85   1.279       .  A
O79         Cu82   2.004       .  S
O79          C84   1.276       .  A
O80         Cu82   2.010       .  S
O80          C83   1.277       .  A
Cu81        Cu82   2.376       .  S
C83          C97   1.458       .  S
C84          C98   1.457       .  S
C85         C252   1.479       .  S
C86         C175   1.482       .  S
O87        Cu423   2.009       .  S
O87          C97   1.277       .  A
O88         Cu95   2.009       .  S
O88          C98   1.277       .  A
O89         Cu95   2.009       .  S
O89         C427   1.279   1_565  A
O90        Cu423   2.011       .  S
O90         C100   1.279       .  A
O91         Cu96   2.009       .  S
O91         C100   1.279       .  A
O92        Cu424   2.008       .  S
O92         C427   1.278   1_565  A
O93        Cu424   2.006       .  S
O93          C98   1.276       .  A
O94         Cu96   2.007       .  S
O94          C97   1.276       .  A
Cu95        O415   2.009       .  S
Cu95        O418   2.010       .  S
Cu95       Cu424   2.375       .  S
Cu96        O420   2.009       .  S
Cu96        O421   2.006   1_554  S
Cu96       Cu423   2.375       .  S
C99         C307   1.480       .  S
C99         O417   1.279   1_545  A
C99         O420   1.278   1_545  A
C100        C197   1.482       .  S
N101        N102   1.321       .  A
N101        C105   1.344       .  A
N101       Cu109   2.072       .  S
N102        C103   1.345       .  A
N102       Cu108   2.075       .  S
C103        H106   1.081       .  S
C103        C104   1.389       .  A
C104        C105   1.389       .  A
C104        C164   1.488       .  S
C105        H107   1.081       .  S
Cu108       N111   2.076       .  S
Cu109       N119   2.073       .  S
Cu110       N112   2.077       .  S
Cu110       N118   2.077   1_565  S
N111        N112   1.323   1_545  A
N111        C115   1.345   1_545  A
N112        C113   1.345       .  A
C113        H116   1.082       .  S
C113        C114   1.383       .  A
C114        C115   1.383       .  A
C115        H117   1.082   1_565  S
N118        N119   1.320       .  A
N118        C122   1.345   1_545  A
N119        C120   1.344       .  A
C120        H123   1.080       .  S
C120        C121   1.389       .  A
C121        C122   1.390   1_545  A
C121        C186   1.489   1_545  S
C122        H124   1.081       .  S
O125       Cu133   2.008       .  S
O125        C135   1.276       .  A
O126       Cu133   2.007       .  S
O126        C136   1.276       .  A
O127       Cu133   2.010       .  S
O127        C137   1.279       .  A
O128       Cu133   2.012       .  S
O128        C138   1.279       .  A
O129       Cu134   2.006       .  S
O129        C138   1.278       .  A
O130       Cu134   2.007       .  S
O130        C137   1.278       .  A
O131       Cu134   2.008       .  S
O131        C136   1.276       .  A
O132       Cu134   2.008       .  S
O132        C135   1.276       .  A
Cu133      Cu134   2.376       .  S
C135        C150   1.457       .  S
C136        C149   1.457       .  S
C137        C153   1.480       .  S
C138        C263   1.481       .  S
O139       Cu475   2.008       .  S
O139        C149   1.276       .  A
O140       Cu147   2.009   1_554  S
O140        C150   1.277       .  A
O141       Cu147   2.008       .  S
O141        C151   1.279   1_455  A
O142       Cu147   2.011       .  S
O142        C152   1.278       .  A
O143       Cu148   2.011       .  S
O143        C152   1.279       .  A
O144       Cu148   2.012       .  S
O144        C151   1.279   1_455  A
O145       Cu148   2.007   1_554  S
O145        C150   1.276       .  A
O146       Cu476   2.007       .  S
O146        C149   1.276       .  A
Cu147       O467   2.010       .  S
Cu147      Cu148   2.375       .  S
Cu148       O474   2.006       .  S
C151        C296   1.481       .  S
C152        C230   1.482       .  S
C153        C154   1.407       .  A
C153        C158   1.408       .  A
C154        H167   1.083       .  S
C154        C155   1.397       .  A
C155        H168   1.083       .  S
C155        C156   1.399       .  A
C156        C157   1.400       .  A
C156        C159   1.440       .  S
C157        H169   1.084       .  S
C157        C158   1.400       .  A
C158        H170   1.083       .  S
C159        C160   1.206       .  T
C160        C161   1.440       .  S
C161        C162   1.399       .  A
C161        C166   1.398       .  A
C162        H171   1.083       .  S
C162        C163   1.399       .  A
C163        H172   1.081       .  S
C163        C164   1.409       .  A
C164        C165   1.409       .  A
C165        H173   1.081       .  S
C165        C166   1.398       .  A
C166        H174   1.084       .  S
C175        C176   1.407       .  A
C175        C180   1.408       .  A
C176        H189   1.083   1_565  S
C176        C177   1.398       .  A
C177        H190   1.083   1_565  S
C177        C178   1.399       .  A
C178        C179   1.400       .  A
C178        C181   1.441       .  S
C179        H191   1.084       .  S
C179        C180   1.400       .  A
C180        H192   1.083       .  S
C181        C182   1.207       .  T
C182        C183   1.441       .  S
C183        C184   1.399       .  A
C183        C188   1.398   1_565  A
C184        H193   1.083       .  S
C184        C185   1.400       .  A
C185        H194   1.081       .  S
C185        C186   1.409       .  A
C186        C187   1.409   1_565  A
C187        H195   1.080       .  S
C187        C188   1.398       .  A
C188        H196   1.084       .  S
C197        C202   1.407       .  A
C197        C526   1.408   1_554  A
C198        H211   1.083       .  S
C198        C199   1.400       .  A
C198        C525   1.408       .  A
C199        H212   1.083       .  S
C199        C200   1.400       .  A
C200        C529   1.399       .  A
C200        C203   1.440       .  S
C201        H213   1.084       .  S
C201        C202   1.398       .  A
C201        C528   1.399   1_554  A
C202        H214   1.083       .  S
C203        C204   1.206       .  T
C204        C205   1.441       .  S
C205        C210   1.399       .  A
C205        C534   1.398       .  A
C206        H215   1.084       .  S
C206        C207   1.398       .  A
C206        C533   1.398   1_554  A
C207        H216   1.081       .  S
C207        C536   1.409       .  A
C208        C209   1.409       .  A
C208        C535   1.409       .  A
C209        H217   1.081       .  S
C209        C210   1.400       .  A
C210        H218   1.083       .  S
C219        C220   1.409       .  A
C219        C552   1.409       .  A
C220        H233   1.081       .  S
C220        C221   1.398       .  A
C221        H234   1.084       .  S
C221        C222   1.399       .  A
C222        C551   1.399       .  A
C222        C225   1.441       .  S
C223        H235   1.083       .  S
C223        C224   1.400       .  A
C223        C550   1.399       .  A
C224        H236   1.081       .  S
C224        C547   1.409       .  A
C225        C226   1.207       .  T
C226        C227   1.441       .  S
C227        C232   1.399       .  A
C227        C556   1.400   1_554  A
C228        H237   1.084       .  S
C228        C229   1.399       .  A
C228        C555   1.400       .  A
C229        H238   1.083       .  S
C229        C558   1.408       .  A
C230        C231   1.407   1_556  A
C230        C557   1.408       .  A
C231        H239   1.083       .  S
C231        C232   1.398       .  A
C232        H240   1.084       .  S
C241        C242   1.409       .  A
C241        C246   1.409       .  A
C242        H255   1.081       .  S
C242        C243   1.397       .  A
C243        H256   1.084       .  S
C243        C244   1.398       .  A
C244        C245   1.399       .  A
C244        C247   1.440       .  S
C245        H257   1.083       .  S
C245        C246   1.400       .  A
C246        H258   1.081       .  S
C247        C248   1.206       .  T
C248        C249   1.440       .  S
C249        C250   1.400       .  A
C249        C254   1.400       .  A
C250        H259   1.084       .  S
C250        C251   1.399       .  A
C251        H260   1.083       .  S
C251        C252   1.407       .  A
C252        C253   1.406       .  A
C253        H261   1.083       .  S
C253        C254   1.398       .  A
C254        H262   1.083       .  S
C263        C264   1.408       .  A
C263        C268   1.407       .  A
C264        H277   1.083       .  S
C264        C265   1.400       .  A
C265        H278   1.083       .  S
C265        C266   1.400       .  A
C266        C267   1.398       .  A
C266        C269   1.439       .  S
C267        H279   1.084   1_455  S
C267        C268   1.396       .  A
C268        H280   1.083   1_455  S
C269        C270   1.206       .  T
C270        C271   1.439       .  S
C271        C272   1.399   1_455  A
C271        C276   1.398       .  A
C272        H281   1.084       .  S
C272        C273   1.398       .  A
C273        H282   1.081       .  S
C273        C274   1.409       .  A
C274        C275   1.409   1_655  A
C275        H283   1.081       .  S
C275        C276   1.399       .  A
C276        H284   1.084       .  S
C285        C286   1.409       .  A
C285        C618   1.409   1_556  A
C286        H299   1.081       .  S
C286        C287   1.398       .  A
C287        H300   1.083       .  S
C287        C288   1.399       .  A
C288        C617   1.399   1_556  A
C288        C291   1.441       .  S
C289        H301   1.084       .  S
C289        C290   1.400       .  A
C289        C616   1.399       .  A
C290        H302   1.082       .  S
C290        C613   1.408       .  A
C291        C292   1.206   1_556  T
C292        C293   1.440       .  S
C293        C298   1.399       .  A
C293        C622   1.400   1_554  A
C294        H303   1.083       .  S
C294        C295   1.399       .  A
C294        C621   1.400       .  A
C295        H304   1.083       .  S
C295        C624   1.407       .  A
C296        C297   1.407   1_556  A
C296        C623   1.408       .  A
C297        H305   1.083       .  S
C297        C298   1.397       .  A
C298        H306   1.084       .  S
C307        C308   1.407       .  A
C307        C640   1.408   1_554  A
C308        H321   1.083       .  S
C308        C309   1.398       .  A
C309        H322   1.083       .  S
C309        C310   1.399       .  A
C310        C639   1.400   1_554  A
C310        C313   1.439       .  S
C311        H323   1.084       .  S
C311        C312   1.399       .  A
C311        C638   1.399       .  A
C312        H324   1.083       .  S
C312        C635   1.407       .  A
C313        C314   1.205       .  T
C314        C315   1.439       .  S
C315        C320   1.398   1_554  A
C315        C644   1.399       .  A
C316        H325   1.083       .  S
C316        C317   1.399       .  A
C316        C643   1.399       .  A
C317        H326   1.082       .  S
C317        C318   1.408       .  A
C318        C647   1.408       .  A
C319        H327   1.081       .  S
C319        C320   1.397       .  A
C319        C646   1.408   1_556  A
C320        H328   1.084       .  S
N329        N330   1.320       .  A
N329        C333   1.343       .  A
N329       Cu337   2.070       .  S
N330        C331   1.345       .  A
N330       Cu336   2.074       .  S
C331        H334   1.081       .  S
C332        C646   1.484       .  S
C333        H335   1.081       .  S
Cu336       N339   2.074       .  S
Cu338       N340   2.077       .  S
N339        C343   1.345       .  A
N340        C341   1.345       .  A
C341        H344   1.082       .  S
C341        C342   1.384       .  A
C342        C390   1.471   1_556  S
C343        H345   1.082       .  S
N346        C350   1.346       .  A
N347        C348   1.344       .  A
C349        C350   1.389       .  A
C349        C613   1.485       .  S
N353        N354   1.321       .  A
N353        C357   1.344       .  A
N353       Cu361   2.069       .  S
N354        C355   1.345   1_655  A
N354       Cu360   2.075   1_655  S
C355        H358   1.081       .  S
C355        C356   1.389   1_455  A
C356        C357   1.388       .  A
C356        C602   1.486       .  S
C357        H359   1.081       .  S
Cu360       N363   2.075       .  S
Cu361       N371   2.069       .  S
Cu362       N364   2.077       .  S
Cu362       N370   2.077       .  S
N363        N364   1.323   1_455  A
N363        C367   1.345       .  A
N364        C365   1.345   1_655  A
C365        H368   1.082   1_455  S
C365        C366   1.383       .  A
C366        C367   1.383       .  A
C366        C442   1.472       .  S
C367        H369   1.082       .  S
N370        N371   1.321       .  A
N370        C374   1.346       .  A
N371        C372   1.343       .  A
C372        H375   1.081       .  S
C372        C373   1.386       .  A
C373        C374   1.388       .  A
C373        C569   1.484       .  S
C374        H376   1.081       .  S
N377        N378   1.320       .  A
N377        C381   1.344       .  A
N377       Cu385   2.073       .  S
N378        C379   1.345       .  A
N378       Cu384   2.075       .  S
C379        H382   1.081       .  S
C380        C536   1.489       .  S
C381        H383   1.081       .  S
Cu384       N387   2.075       .  S
Cu386       N388   2.076       .  S
N387        C391   1.345       .  A
N388        C389   1.345       .  A
C389        H392   1.082       .  S
C389        C390   1.383       .  A
C391        H393   1.082       .  S
N394        C398   1.345       .  A
N395        C396   1.344       .  A
C397        C398   1.389       .  A
C397        C547   1.487       .  S
O401       Cu409   2.006       .  S
O401        C411   1.276       .  A
O402       Cu409   2.010       .  S
O402        C412   1.277       .  A
O403       Cu409   2.009       .  S
O403        C413   1.278       .  A
O404       Cu409   2.009       .  S
O404        C414   1.279       .  A
O405       Cu410   2.013       .  S
O405        C414   1.279       .  A
O406       Cu410   2.009       .  S
O406        C413   1.279       .  A
O407       Cu410   2.005       .  S
O407        C412   1.276       .  A
O408       Cu410   2.011       .  S
O408        C411   1.277       .  A
Cu409      Cu410   2.376       .  S
C411        C425   1.458       .  S
C412        C426   1.458       .  S
C413        C580   1.479       .  S
C414        C503   1.483       .  S
O415        C425   1.277       .  A
O416       Cu423   2.010   1_556  S
O416        C426   1.277       .  A
O417       Cu423   2.009       .  S
O418        C428   1.279       .  A
O419       Cu424   2.009       .  S
O419        C428   1.279       .  A
O421        C426   1.276       .  A
O422       Cu424   2.008       .  S
O422        C425   1.276       .  A
C427        C635   1.480       .  S
C428        C525   1.481       .  S
N429        N430   1.321       .  A
N429        C433   1.344       .  A
N429       Cu437   2.072       .  S
N430        C431   1.345       .  A
N430       Cu436   2.075       .  S
C431        H434   1.081       .  S
C431        C432   1.389       .  A
C432        C433   1.388       .  A
C432        C492   1.486       .  S
C433        H435   1.081       .  S
Cu436       N439   2.076       .  S
Cu437       N447   2.072       .  S
Cu438       N440   2.078       .  S
Cu438       N446   2.078   1_565  S
N439        N440   1.323   1_545  A
N439        C443   1.345   1_545  A
N440        C441   1.346       .  A
C441        H444   1.082       .  S
C441        C442   1.383       .  A
C442        C443   1.383       .  A
C443        H445   1.082   1_565  S
N446        N447   1.321       .  A
N446        C450   1.346   1_545  A
N447        C448   1.344       .  A
C448        H451   1.081       .  S
C448        C449   1.387       .  A
C449        C450   1.388   1_545  A
C449        C514   1.485   1_545  S
C450        H452   1.081       .  S
O453       Cu461   2.007       .  S
O453        C463   1.276       .  A
O454       Cu461   2.007       .  S
O454        C464   1.276       .  A
O455       Cu461   2.011       .  S
O455        C465   1.279       .  A
O456       Cu461   2.012       .  S
O456        C466   1.279       .  A
O457       Cu462   2.006       .  S
O457        C466   1.278       .  A
O458       Cu462   2.007       .  S
O458        C465   1.278       .  A
O459       Cu462   2.010       .  S
O459        C464   1.277       .  A
O460       Cu462   2.009       .  S
O460        C463   1.277       .  A
Cu461      Cu462   2.376       .  S
C463        C478   1.458       .  S
C464        C477   1.458       .  S
C465        C481   1.481       .  S
C466        C591   1.481       .  S
O467        C477   1.277       .  A
O468       Cu475   2.008       .  S
O468        C478   1.277       .  A
O469       Cu475   2.007       .  S
O469        C479   1.278   1_455  A
O470       Cu475   2.008       .  S
O470        C480   1.278       .  A
O471       Cu476   2.010       .  S
O471        C480   1.279       .  A
O472       Cu476   2.010       .  S
O472        C479   1.279   1_455  A
O473       Cu476   2.008       .  S
O473        C478   1.276       .  A
O474        C477   1.276       .  A
Cu475      Cu476   2.376       .  S
C479        C624   1.480       .  S
C480        C558   1.481       .  S
C481        C482   1.407       .  A
C481        C486   1.408       .  A
C482        H495   1.083       .  S
C482        C483   1.398       .  A
C483        H496   1.083       .  S
C483        C484   1.399       .  A
C484        C485   1.400       .  A
C484        C487   1.440       .  S
C485        H497   1.084       .  S
C485        C486   1.399       .  A
C486        H498   1.083       .  S
C487        C488   1.206       .  T
C488        C489   1.440       .  S
C489        C490   1.399       .  A
C489        C494   1.399       .  A
C490        H499   1.083       .  S
C490        C491   1.400       .  A
C491        H500   1.081       .  S
C491        C492   1.409       .  A
C492        C493   1.408       .  A
C493        H501   1.081       .  S
C493        C494   1.398       .  A
C494        H502   1.084       .  S
C503        C504   1.407       .  A
C503        C508   1.408       .  A
C504        H517   1.083   1_565  S
C504        C505   1.398       .  A
C505        H518   1.083   1_565  S
C505        C506   1.399       .  A
C506        C507   1.400       .  A
C506        C509   1.441       .  S
C507        H519   1.084       .  S
C507        C508   1.400       .  A
C508        H520   1.083       .  S
C509        C510   1.207       .  T
C510        C511   1.441       .  S
C511        C512   1.400       .  A
C511        C516   1.399   1_565  A
C512        H521   1.083       .  S
C512        C513   1.400       .  A
C513        H522   1.082       .  S
C513        C514   1.408       .  A
C514        C515   1.408   1_565  A
C515        H523   1.081       .  S
C515        C516   1.398       .  A
C516        H524   1.084       .  S
C525        C530   1.407       .  A
C526        H539   1.083       .  S
C526        C527   1.400       .  A
C527        H540   1.083       .  S
C527        C528   1.400       .  A
C528        C531   1.441       .  S
C529        H541   1.084       .  S
C529        C530   1.398       .  A
C530        H542   1.083       .  S
C531        C532   1.207       .  T
C532        C533   1.441       .  S
C533        C538   1.399       .  A
C534        H543   1.084       .  S
C534        C535   1.398       .  A
C535        H544   1.081       .  S
C536        C537   1.409       .  A
C537        H545   1.081   1_554  S
C537        C538   1.400   1_554  A
C538        H546   1.084       .  S
C547        C548   1.408       .  A
C548        H561   1.081       .  S
C548        C549   1.397       .  A
C549        H562   1.084       .  S
C549        C550   1.398       .  A
C550        C553   1.440       .  S
C551        H563   1.083   1_554  S
C551        C552   1.400       .  A
C552        H564   1.081   1_554  S
C553        C554   1.206       .  T
C554        C555   1.440       .  S
C555        C560   1.400       .  A
C556        H565   1.084       .  S
C556        C557   1.400       .  A
C557        H566   1.083       .  S
C558        C559   1.407       .  A
C559        H567   1.083       .  S
C559        C560   1.398       .  A
C560        H568   1.084       .  S
C569        C570   1.408       .  A
C569        C574   1.408       .  A
C570        H583   1.082       .  S
C570        C571   1.398       .  A
C571        H584   1.084       .  S
C571        C572   1.399       .  A
C572        C573   1.399       .  A
C572        C575   1.439       .  S
C573        H585   1.083       .  S
C573        C574   1.399       .  A
C574        H586   1.082       .  S
C575        C576   1.206       .  T
C576        C577   1.439       .  S
C577        C578   1.400       .  A
C577        C582   1.399       .  A
C578        H587   1.084       .  S
C578        C579   1.399       .  A
C579        H588   1.083       .  S
C579        C580   1.407       .  A
C580        C581   1.406       .  A
C581        H589   1.083       .  S
C581        C582   1.398       .  A
C582        H590   1.083       .  S
C591        C592   1.408       .  A
C591        C596   1.407       .  A
C592        H605   1.083       .  S
C592        C593   1.400       .  A
C593        H606   1.083       .  S
C593        C594   1.400       .  A
C594        C595   1.398       .  A
C594        C597   1.439       .  S
C595        H607   1.084   1_455  S
C595        C596   1.397       .  A
C596        H608   1.083   1_455  S
C597        C598   1.206       .  T
C598        C599   1.439       .  S
C599        C600   1.399   1_455  A
C599        C604   1.398       .  A
C600        H609   1.084       .  S
C600        C601   1.398       .  A
C601        H610   1.081       .  S
C601        C602   1.408       .  A
C602        C603   1.408   1_655  A
C603        H611   1.081       .  S
C603        C604   1.398       .  A
C604        H612   1.084       .  S
C613        C614   1.408       .  A
C614        H627   1.082       .  S
C614        C615   1.397       .  A
C615        H628   1.083       .  S
C615        C616   1.398       .  A
C616        C619   1.440       .  S
C617        H629   1.084       .  S
C617        C618   1.399       .  A
C618        H630   1.081       .  S
C619        C620   1.206       .  T
C620        C621   1.440       .  S
C621        C626   1.399       .  A
C622        H631   1.083       .  S
C622        C623   1.400       .  A
C623        H632   1.083       .  S
C624        C625   1.407       .  A
C625        H633   1.083       .  S
C625        C626   1.398       .  A
C626        H634   1.084       .  S
C635        C636   1.407       .  A
C636        H649   1.083       .  S
C636        C637   1.398       .  A
C637        H650   1.083       .  S
C637        C638   1.400       .  A
C638        C641   1.439       .  S
C639        H651   1.084       .  S
C639        C640   1.399       .  A
C640        H652   1.083       .  S
C641        C642   1.206       .  T
C642        C643   1.439       .  S
C643        C648   1.398       .  A
C644        H653   1.083       .  S
C644        C645   1.399       .  A
C645        H654   1.082       .  S
C645        C646   1.408       .  A
C647        H655   1.081       .  S
C647        C648   1.397       .  A
C648        H656   1.084       .  S
