geometry optimzed in LAMMPS
_audit_creation_date              2020-12-01 
_audit_creation_method            'lammps2cif' 
_symmetry_space_group_name_H-M    'P1' 
_symmetry_Int_Tables_number       1 
_symmetry_cell_setting            triclinic 
loop_ 
_symmetry_equiv_pos_as_xyz 
  x,y,z 
_cell_length_a                    35.47501364 
_cell_length_b                    24.771401182309244 
_cell_length_c                    24.74241428905629 
_cell_angle_alpha                 89.61454723810637 
_cell_angle_beta                  89.36051474775388 
_cell_angle_gamma                 89.66643124138302 
loop_ 
_atom_site_label 
_atom_site_type_symbol 
_atom_site_fract_x 
_atom_site_fract_y 
_atom_site_fract_z 
_atom_site_charge 
Zn1        Zn  0.45657841  0.50046611  0.05183347     1.49700
Zn2        Zn  0.00050051  0.43464551  0.96038728     1.49400
Zn3        Zn  0.50131293  0.06551925  0.95896306     1.49100
Zn4        Zn  0.04474734  0.50031878  0.05069412     1.49500
O5          O  0.00077570  0.00029074  0.00491185    -1.82700
O6          O  0.42329484  0.43799799  0.03651851    -0.73300
O7          O  0.00061203  0.45454235  0.88158795    -0.73100
O8          O  0.45454296  0.11127161  0.97231220    -0.72700
O9          O  0.45308168  0.39070570  0.97307465    -0.73300
O10         O  0.42450657  0.06421599  0.03600761    -0.72900
O11         O  0.50072507  0.04418068  0.88062525    -0.73500
O12         O  0.07754045  0.06306288  0.03374370    -0.72900
O13         O  0.04755701  0.38955850  0.97206613    -0.73700
O14         O  0.04890283  0.10969011  0.96910501    -0.73100
O15         O  0.07729341  0.43712547  0.03411383    -0.73500
O16         O  0.03192131  0.50049339  0.13039683    -0.73400
O17         O  0.46924268  0.50061988  0.13089972    -0.73200
C18         C  0.42456869  0.39863477  0.00386380     0.78600
C19         C  0.00061913  0.99922844  0.85590693     0.79100
C20         C  0.42615426  0.10407777  0.00354665     0.78000
C21         C  0.07679966  0.10223760  0.00037491     0.78400
C22         C  0.07595222  0.39734323  0.00207625     0.79500
C23         C  0.50047176  0.50069537  0.15560516     0.78600
C24         C  0.28484442  0.27954097  0.98876626     0.03700
C25         C  0.28554191  0.22252900  0.99007260     0.03700
C26         C  0.25167521  0.19368907  0.98988661    -0.16800
C27         C  0.21701915  0.22098827  0.98922618     0.03700
C28         C  0.21631908  0.27800047  0.98793260     0.03700
C29         C  0.25020057  0.30681166  0.98728604    -0.16800
H30         H  0.24956883  0.35048828  0.98724428     0.05700
H31         H  0.25228892  0.15002841  0.99138434     0.05700
C32         C  0.50052308  0.99896855  0.79611056     0.04600
C33         C  0.50154999  0.04801602  0.76707713    -0.11600
C34         C  0.50147700  0.04822152  0.71055166     0.02100
C35         C  0.50015295  0.99919642  0.68272033    -0.10100
C36         C  0.49889026  0.44994813  0.71092048     0.04600
C37         C  0.49927153  0.44989800  0.76757932    -0.09500
H38         H  0.50254308  0.08617455  0.78814995     0.10200
H39         H  0.99986280  0.99938326  0.63889906     0.07700
H40         H  0.49823063  0.41170816  0.78912308     0.07500
C41         C  0.50006762  0.50031884  0.21478840     0.04600
C42         C  0.50062906  0.45089695  0.24281154    -0.11600
C43         C  0.49945559  0.45001438  0.29939759     0.02100
C44         C  0.49753481  0.49883306  0.32779141    -0.10100
C45         C  0.49693526  0.04847807  0.30011725     0.04600
C46         C  0.49830708  0.04908561  0.24341854    -0.09500
H47         H  0.50201757  0.41328270  0.22071948     0.10200
H48         H  0.49665683  0.49818776  0.37161881     0.07700
H49         H  0.49778980  0.08724840  0.22175518     0.07500
C50         C  0.99669092  0.27848298  0.55481138     0.03700
C51         C  0.99753909  0.22129382  0.55546966     0.03700
C52         C  0.99637014  0.19349079  0.50624549    -0.16800
C53         C  0.99597474  0.22038123  0.45621386     0.03700
C54         C  0.99697712  0.27756391  0.45543419     0.03700
C55         C  0.99662547  0.30540080  0.50472232    -0.16800
H56         H  0.99671942  0.34922098  0.50405847     0.05700
H57         H  0.99634682  0.14966518  0.50687973     0.05700
C58         C  0.00078052  0.39819931  0.33001937    -0.03900
C59         C  0.46781948  0.36734550  0.33754603    -0.01000
C60         C  0.46717153  0.32441748  0.37552409     0.04000
C61         C  0.99980412  0.31144659  0.40543119    -0.03900
C62         C  0.03331555  0.34101746  0.39562105    -0.01000
C63         C  0.03391497  0.38343482  0.35738621     0.04000
C64         C  0.43384604  0.38218300  0.30874826     0.38600
C65         C  0.06616789  0.33178033  0.42895776     0.38600
C66         C  0.06829007  0.41369074  0.34781547     0.37000
C67         C  0.43169386  0.29825657  0.38796052     0.37000
N68         N  0.09564881  0.43786377  0.33996873    -0.37800
N69         N  0.40270362  0.27903486  0.39743006    -0.37800
N70         N  0.09217770  0.32527240  0.45611788    -0.37200
N71         N  0.40679951  0.39412025  0.28571580    -0.37200
C72         C  0.99442678  0.18556273  0.40711547    -0.03900
C73         C  0.46119988  0.15588492  0.39709348    -0.01000
C74         C  0.46135866  0.11406685  0.35862460     0.04000
C75         C  0.99507782  0.09948914  0.33164782    -0.03900
C76         C  0.02809864  0.12944105  0.34064001    -0.01000
C77         C  0.02788024  0.17207132  0.37843070     0.04000
C78         C  0.42778262  0.16441750  0.43038841     0.38600
C79         C  0.06301259  0.11371004  0.31381080     0.38600
C80         C  0.06321419  0.19722756  0.39217507     0.37000
C81         C  0.42707852  0.08435022  0.34828624     0.37000
N82         N  0.09210242  0.21551861  0.40281946    -0.37800
N83         N  0.39977720  0.06065294  0.33981718    -0.37800
N84         N  0.09082739  0.10090721  0.29249487    -0.37200
N85         N  0.40134125  0.17040712  0.45756628    -0.37200
C86         C  0.00269958  0.09978233  0.67955399    -0.03900
C87         C  0.47006532  0.13227083  0.67510145    -0.01000
C88         C  0.46914703  0.17563722  0.63769595     0.04000
C89         C  0.00115176  0.18724683  0.60513841    -0.03900
C90         C  0.03444529  0.15609016  0.61192394    -0.01000
C91         C  0.03532616  0.11318398  0.64953755     0.04000
C92         C  0.43649764  0.11849280  0.70616759     0.38600
C93         C  0.06671959  0.16454013  0.57633486     0.38600
C94         C  0.06939636  0.08110057  0.65573725     0.37000
C95         C  0.43387904  0.20387287  0.62878731     0.37000
N96         N  0.09647859  0.55538699  0.66078077    -0.37800
N97         N  0.40504189  0.22483400  0.62231777    -0.37800
N98         N  0.09227291  0.17065434  0.54749310    -0.37200
N99         N  0.40973253  0.10731510  0.73085812    -0.37200
C100        C  0.99636324  0.39877720  0.67992595    -0.03900
C101        C  0.02860011  0.36605888  0.67194016    -0.01000
C102        C  0.02826698  0.32403481  0.63348315     0.04000
C103        C  0.99517518  0.31315735  0.60410977    -0.03900
C104        C  0.46237378  0.34462233  0.61431533    -0.01000
C105        C  0.46290042  0.38667662  0.65244434     0.04000
C106        C  0.06292364  0.37801152  0.70077135     0.38600
C107        C  0.42893932  0.33712082  0.58199468     0.38600
C108        C  0.42933589  0.41919970  0.66194598     0.37000
C109        C  0.06331814  0.29684822  0.61995223     0.37000
N110        N  0.40271762  0.94534383  0.66971709    -0.37800
N111        N  0.09208381  0.27702958  0.60960481    -0.37800
N112        N  0.40240414  0.33170361  0.55582663    -0.37200
N113        N  0.09028334  0.38750665  0.72381708    -0.37200
C114        C  0.32174900  0.19247198  0.99342381    -0.03900
C115        C  0.33627807  0.17777990  0.04422926    -0.01000
C116        C  0.37198207  0.15302199  0.04778411     0.04000
C117        C  0.39261753  0.14010361  0.00021211    -0.03900
C118        C  0.37752182  0.15398102  0.94917092    -0.01000
C119        C  0.34191887  0.17927732  0.94591383     0.04000
C120        C  0.31339273  0.18465342  0.09266083     0.38600
C121        C  0.39743523  0.13961578  0.89971607     0.38600
C122        C  0.32459187  0.18759911  0.89367844     0.37000
C123        C  0.38737650  0.14090134  0.10067270     0.37000
N124        N  0.31055554  0.19305475  0.85198643    -0.37800
N125        N  0.39956000  0.13128867  0.14288373    -0.37800
N126        N  0.41335247  0.12825973  0.86028403    -0.37200
N127        N  0.29508374  0.18888637  0.13141696    -0.37200
C128        C  0.10964591  0.36172852  0.99818289    -0.03900
C129        C  0.12543759  0.34880102  0.94700269    -0.01000
C130        C  0.16063016  0.32215640  0.94355348     0.04000
C131        C  0.18012518  0.30821344  0.99102015    -0.03900
C132        C  0.16512197  0.32282707  0.04184378    -0.01000
C133        C  0.12950239  0.34778669  0.04559605     0.04000
C134        C  0.10688188  0.36598381  0.89774280     0.38600
C135        C  0.18743176  0.31564760  0.09013543     0.38600
C136        C  0.11342565  0.35928419  0.09854990     0.37000
C137        C  0.17810477  0.31275846  0.89116321     0.37000
N138        N  0.10064003  0.36846871  0.14075940    -0.37800
N139        N  0.19215136  0.30623003  0.84925801    -0.37800
N140        N  0.20521954  0.31123560  0.12884153    -0.37200
N141        N  0.09220631  0.37988218  0.85844390    -0.37200
C142        C  0.11054541  0.13754090  0.99695100    -0.03900
C143        C  0.12773186  0.14915772  0.94626817    -0.01000
C144        C  0.16344311  0.17399271  0.94390932     0.04000
C145        C  0.18142631  0.18953891  0.99183077    -0.03900
C146        C  0.16487752  0.17672011  0.04230295    -0.01000
C147        C  0.12915943  0.15228664  0.04492399     0.04000
C148        C  0.10962124  0.13366241  0.89645759     0.38600
C149        C  0.18575241  0.18495854  0.09157109     0.38600
C150        C  0.11139560  0.14285305  0.09728394     0.37000
C151        C  0.18314244  0.17956185  0.89251972     0.37000
N152        N  0.09713736  0.13541697  0.13895538    -0.37800
N153        N  0.19922812  0.18284693  0.85168971    -0.37800
N154        N  0.20240057  0.19007989  0.13114065    -0.37200
N155        N  0.09519085  0.12167257  0.85659747    -0.37200
C156        C  0.32028612  0.31113123  0.99223479    -0.03900
C157        C  0.33986270  0.32702728  0.94490595    -0.01000
C158        C  0.37510688  0.35285535  0.94851651     0.04000
C159        C  0.39064504  0.36394389  0.99975577    -0.03900
C160        C  0.37046327  0.34881344  0.04707336    -0.01000
C161        C  0.33493631  0.32414555  0.04320670     0.04000
C162        C  0.32245310  0.32039598  0.89264175     0.38600
C163        C  0.38637304  0.35798065  0.10001549     0.38600
C164        C  0.31230804  0.31568070  0.09163226     0.37000
C165        C  0.39428359  0.37043232  0.89938399     0.37000
N166        N  0.29421529  0.31032752  0.13047326    -0.37800
N167        N  0.40956903  0.38443491  0.86020463    -0.37800
N168        N  0.39905657  0.36502146  0.14226753    -0.37200
N169        N  0.30842836  0.31619235  0.85088513    -0.37200
Zn170      Zn  0.45657617  0.00047061  0.05182220     1.49700
Zn171      Zn  0.00050436  0.93465174  0.96038062     1.49400
Zn172      Zn  0.50131395  0.56551194  0.95897210     1.49100
Zn173      Zn  0.04474682  0.00033144  0.05068629     1.49500
O174        O  0.00077601  0.50028314  0.00491983    -1.82700
O175        O  0.42329151  0.93800469  0.03649355    -0.73300
O176        O  0.00061804  0.95454852  0.88158260    -0.73100
O177        O  0.45454122  0.61126148  0.97231778    -0.72700
O178        O  0.45308745  0.89070467  0.97306447    -0.73300
O179        O  0.42450530  0.56420349  0.03601169    -0.72900
O180        O  0.50072610  0.54417452  0.88063206    -0.73500
O181        O  0.07754631  0.56304394  0.03374928    -0.72900
O182        O  0.04756488  0.88957289  0.97205613    -0.73700
O183        O  0.04890426  0.60968187  0.96912212    -0.73100
O184        O  0.07730075  0.93714646  0.03409905    -0.73500
O185        O  0.03191898  0.00049886  0.13038986    -0.73400
O186        O  0.46924017  0.00061167  0.13089086    -0.73200
C187        C  0.42456992  0.89863668  0.00384436     0.78600
C188        C  0.00061476  0.49922267  0.85591269     0.79100
C189        C  0.42615160  0.60406431  0.00354992     0.78000
C190        C  0.07680369  0.60222368  0.00038656     0.78400
C191        C  0.07596173  0.89736405  0.00206127     0.79500
C192        C  0.50046898  0.00069163  0.15559761     0.78600
C193        C  0.28484759  0.77953401  0.98873562     0.03700
C194        C  0.28554197  0.72252239  0.99006548     0.03700
C195        C  0.25167393  0.69368559  0.98988945    -0.16800
C196        C  0.21701908  0.72098742  0.98921724     0.03700
C197        C  0.21632155  0.77799947  0.98790103     0.03700
C198        C  0.25020481  0.80680723  0.98724320    -0.16800
H199        H  0.24957517  0.85048375  0.98718751     0.05700
H200        H  0.25228566  0.65002572  0.99140282     0.05700
C201        C  0.50051188  0.49896380  0.79611571     0.04600
C202        C  0.50153867  0.54801157  0.76708225    -0.11600
C203        C  0.50145848  0.54821768  0.71055659     0.02100
C204        C  0.50012653  0.49919316  0.68272529    -0.10100
C205        C  0.49891601  0.94995167  0.71091606     0.04600
C206        C  0.49929000  0.94990218  0.76757476    -0.09500
H207        H  0.50253807  0.58616933  0.78815497     0.10200
H208        H  0.99983320  0.49938057  0.63890391     0.07700
H209        H  0.49824712  0.91171270  0.78911876     0.07500
C210        C  0.50006430  0.00031615  0.21478178     0.04600
C211        C  0.50062426  0.95089558  0.24280846    -0.11600
C212        C  0.49945203  0.95001663  0.29939522     0.02100
C213        C  0.49753339  0.99883743  0.32778551    -0.10100
C214        C  0.49693526  0.54847536  0.30012619     0.04600
C215        C  0.49830784  0.54908651  0.24342756    -0.09500
H216        H  0.50201089  0.91327996  0.22071882     0.10200
H217        H  0.49665584  0.99819511  0.37161293     0.07700
H218        H  0.49778923  0.58725027  0.22176638     0.07500
C219        C  0.99668847  0.77848190  0.55481575     0.03700
C220        C  0.99753424  0.72129250  0.55547323     0.03700
C221        C  0.99636123  0.69349124  0.50624833    -0.16800
C222        C  0.99596481  0.72038316  0.45621727     0.03700
C223        C  0.99696778  0.77756586  0.45543822     0.03700
C224        C  0.99662015  0.80540108  0.50472714    -0.16800
H225        H  0.99671593  0.84922104  0.50406424     0.05700
H226        H  0.99633640  0.64966620  0.50688131     0.05700
C227        C  0.00077394  0.89820345  0.33002201    -0.03900
C228        C  0.46781061  0.86735558  0.33755356    -0.01000
C229        C  0.46716099  0.82442785  0.37553246     0.04000
C230        C  0.99979423  0.81145038  0.40543557    -0.03900
C231        C  0.03330701  0.84101740  0.39562328    -0.01000
C232        C  0.03390774  0.88343610  0.35738952     0.04000
C233        C  0.43383647  0.88220041  0.30876107     0.38600
C234        C  0.06616017  0.83177436  0.42895680     0.38600
C235        C  0.06828343  0.91369176  0.34782287     0.37000
C236        C  0.43168166  0.79827354  0.38797349     0.37000
N237        N  0.09564284  0.93786479  0.33998133    -0.37800
N238        N  0.40269031  0.77905704  0.39744707    -0.37800
N239        N  0.09217065  0.82526127  0.45611446    -0.37200
N240        N  0.40678960  0.89414469  0.28573291    -0.37200
C241        C  0.99441877  0.68556484  0.40711896    -0.03900
C242        C  0.46119292  0.65588524  0.39709585    -0.01000
C243        C  0.46135529  0.61406041  0.35863411     0.04000
C244        C  0.99507545  0.59948481  0.33165881    -0.03900
C245        C  0.02809478  0.62944001  0.34065054    -0.01000
C246        C  0.02787411  0.67207131  0.37843974     0.04000
C247        C  0.42777257  0.66442410  0.43038272     0.38600
C248        C  0.06301000  0.61371106  0.31382339     0.38600
C249        C  0.06320788  0.69722490  0.39218967     0.37000
C250        C  0.42707834  0.58433334  0.34830361     0.37000
N251        N  0.09209660  0.71551175  0.40283833    -0.37800
N252        N  0.39978005  0.56062613  0.33984199    -0.37800
N253        N  0.09082607  0.60091075  0.29250939    -0.37200
N254        N  0.40132830  0.67041879  0.45755363    -0.37200
C255        C  0.00268613  0.59977818  0.67955822    -0.03900
C256        C  0.47005591  0.63227528  0.67510824    -0.01000
C257        C  0.46914226  0.67564408  0.63770502     0.04000
C258        C  0.00114596  0.68724307  0.60514140    -0.03900
C259        C  0.03443505  0.65607484  0.61192143    -0.01000
C260        C  0.03531285  0.61317063  0.64953779     0.04000
C261        C  0.43648670  0.61850281  0.70617338     0.38600
C262        C  0.06670711  0.66451101  0.57632474     0.38600
C263        C  0.06937973  0.58107971  0.65573674     0.37000
C264        C  0.43387882  0.70389454  0.62880615     0.37000
N265        N  0.09649798  0.05541380  0.66078077    -0.37800
N266        N  0.40504494  0.72486799  0.62234596    -0.37800
N267        N  0.09225836  0.67061370  0.54747668    -0.37200
N268        N  0.40971991  0.60732873  0.73086176    -0.37200
C269        C  0.99638332  0.89878096  0.67992320    -0.03900
C270        C  0.02861603  0.86605478  0.67193517    -0.01000
C271        C  0.02827443  0.82402598  0.63348352     0.04000
C272        C  0.99517949  0.81315636  0.60411416    -0.03900
C273        C  0.46238284  0.84463087  0.61432131    -0.01000
C274        C  0.46291690  0.88668596  0.65244846     0.04000
C275        C  0.06294365  0.87800330  0.70075820     0.38600
C276        C  0.42894585  0.83713874  0.58200373     0.38600
C277        C  0.42935637  0.91921634  0.66195487     0.37000
C278        C  0.06332012  0.79682378  0.61995456     0.37000
N279        N  0.40269352  0.44532094  0.66970368    -0.37800
N280        N  0.09208120  0.77699062  0.60960870    -0.37800
N281        N  0.40240865  0.83172946  0.55583813    -0.37200
N282        N  0.09030696  0.88749513  0.72379664    -0.37200
C283        C  0.32174732  0.69246190  0.99342167    -0.03900
C284        C  0.33627696  0.67777611  0.04422860    -0.01000
C285        C  0.37197785  0.65300857  0.04778458     0.04000
C286        C  0.39261281  0.64008569  0.00021305    -0.03900
C287        C  0.37751558  0.65395555  0.94917097    -0.01000
C288        C  0.34191302  0.67925231  0.94591255     0.04000
C289        C  0.31339565  0.68466736  0.09266145     0.38600
C290        C  0.39742647  0.63958072  0.89971698     0.38600
C291        C  0.32458106  0.68755791  0.89367813     0.37000
C292        C  0.38736827  0.64087912  0.10067381     0.37000
N293        N  0.31053944  0.69300039  0.85198825    -0.37800
N294        N  0.39954789  0.63125683  0.14288510    -0.37800
N295        N  0.41334142  0.62821732  0.86028527    -0.37200
N296        N  0.29509081  0.68891472  0.13141994    -0.37200
C297        C  0.10965795  0.86175400  0.99816321    -0.03900
C298        C  0.12544571  0.84882443  0.94698088    -0.01000
C299        C  0.16063438  0.82216898  0.94352700     0.04000
C300        C  0.18012979  0.80821817  0.99099124    -0.03900
C301        C  0.16513228  0.82283827  0.04181643    -0.01000
C302        C  0.12951730  0.84781088  0.04557345     0.04000
C303        C  0.10689111  0.86601817  0.89772373     0.38600
C304        C  0.18744391  0.81565190  0.09010525     0.38600
C305        C  0.11344938  0.85932232  0.09852955     0.37000
C306        C  0.17810454  0.81276686  0.89113455     0.37000
N307        N  0.10067162  0.86851944  0.14074099    -0.37800
N308        N  0.19214732  0.80623524  0.84922728    -0.37800
N309        N  0.20523255  0.81123499  0.12880992    -0.37200
N310        N  0.09221686  0.87992644  0.85842719    -0.37200
C311        C  0.11054992  0.63752684  0.99696171    -0.03900
C312        C  0.12772748  0.64915782  0.94627604    -0.01000
C313        C  0.16343705  0.67399683  0.94391092     0.04000
C314        C  0.18142562  0.68953968  0.99182915    -0.03900
C315        C  0.16488558  0.67670916  0.04230433    -0.01000
C316        C  0.12917142  0.65226345  0.04493210     0.04000
C317        C  0.10960954  0.63367287  0.89646771     0.38600
C318        C  0.18576493  0.68495192  0.09156793     0.38600
C319        C  0.11141980  0.64280788  0.09729656     0.37000
C320        C  0.18313038  0.67957054  0.89251717     0.37000
N321        N  0.09717215  0.63535358  0.13897214    -0.37800
N322        N  0.19921142  0.68285778  0.85168363    -0.37800
N323        N  0.20241666  0.69007825  0.13113369    -0.37200
N324        N  0.09517285  0.62169186  0.85660966    -0.37200
C325        C  0.32029042  0.81112266  0.99220464    -0.03900
C326        C  0.33987721  0.82699933  0.94487775    -0.01000
C327        C  0.37512164  0.85282699  0.94849280     0.04000
C328        C  0.39064774  0.86394114  0.99973431    -0.03900
C329        C  0.37045619  0.84882801  0.04704918    -0.01000
C330        C  0.33493109  0.82415551  0.04317738     0.04000
C331        C  0.32247785  0.82034992  0.89260892     0.38600
C332        C  0.38635433  0.85801618  0.09999487     0.38600
C333        C  0.31229549  0.81570244  0.09159797     0.37000
C334        C  0.39431214  0.87037344  0.89936045     0.37000
N335        N  0.29419767  0.81035784  0.13043524    -0.37800
N336        N  0.40960892  0.88434968  0.86018068    -0.37800
N337        N  0.39902815  0.86507372  0.14225007    -0.37200
N338        N  0.30846164  0.81613314  0.85084774    -0.37200
Zn339      Zn  0.95657843  0.50046607  0.05183347     1.49700
Zn340      Zn  0.50050049  0.43464556  0.96038728     1.49400
Zn341      Zn  0.00131297  0.06551924  0.95896306     1.49100
Zn342      Zn  0.54474733  0.50031880  0.05069413     1.49500
O343        O  0.50077568  0.00029074  0.00491185    -1.82700
O344        O  0.92329488  0.43799793  0.03651855    -0.73300
O345        O  0.50061196  0.45454240  0.88158796    -0.73100
O346        O  0.95454300  0.11127161  0.97231219    -0.72700
O347        O  0.95308170  0.39070567  0.97307464    -0.73300
O348        O  0.92450661  0.06421601  0.03600761    -0.72900
O349        O  0.00072513  0.04418069  0.88062524    -0.73500
O350        O  0.57754041  0.06306291  0.03374370    -0.72900
O351        O  0.54755701  0.38955856  0.97206607    -0.73700
O352        O  0.54890281  0.10969012  0.96910497    -0.73100
O353        O  0.57729339  0.43712551  0.03411379    -0.73500
O354        O  0.53192129  0.50049338  0.13039684    -0.73400
O355        O  0.96924270  0.50061987  0.13089972    -0.73200
C356        C  0.92456871  0.39863472  0.00386382     0.78600
C357        C  0.50061910  0.99922843  0.85590693     0.79100
C358        C  0.92615430  0.10407779  0.00354664     0.78000
C359        C  0.57679964  0.10223762  0.00037489     0.78400
C360        C  0.57595222  0.39734329  0.00207619     0.79500
C361        C  0.00047178  0.50069538  0.15560515     0.78600
C362        C  0.78484443  0.27954097  0.98876623     0.03700
C363        C  0.78554192  0.22252901  0.99007259     0.03700
C364        C  0.75167522  0.19368905  0.98988663    -0.16800
C365        C  0.71701915  0.22098826  0.98922620     0.03700
C366        C  0.71631908  0.27800046  0.98793261     0.03700
C367        C  0.75020057  0.30681167  0.98728602    -0.16800
H368        H  0.74956883  0.35048824  0.98724425     0.05700
H369        H  0.75228893  0.15002848  0.99138437     0.05700
C370        C  0.00052309  0.99896855  0.79611056     0.04600
C371        C  0.00155000  0.04801602  0.76707712    -0.11600
C372        C  0.00147700  0.04822151  0.71055165     0.02100
C373        C  0.00015294  0.99919640  0.68272033    -0.10100
C374        C  0.99889030  0.44994811  0.71092044     0.04600
C375        C  0.99927159  0.44989793  0.76757929    -0.09500
H376        H  0.00254309  0.08617454  0.78814993     0.10200
H377        H  0.49986282  0.99938329  0.63889907     0.07700
H378        H  0.99823069  0.41170817  0.78912301     0.07500
C379        C  0.00006764  0.50031885  0.21478839     0.04600
C380        C  0.00062910  0.45089696  0.24281152    -0.11600
C381        C  0.99945564  0.45001437  0.29939757     0.02100
C382        C  0.99753484  0.49883304  0.32779140    -0.10100
C383        C  0.99693532  0.04847806  0.30011723     0.04600
C384        C  0.99830712  0.04908561  0.24341852    -0.09500
H385        H  0.00201763  0.41328271  0.22071946     0.10200
H386        H  0.99665687  0.49818773  0.37161880     0.07700
H387        H  0.99778985  0.08724838  0.22175517     0.07500
C388        C  0.49669087  0.27848300  0.55481142     0.03700
C389        C  0.49753902  0.22129384  0.55546969     0.03700
C390        C  0.49637006  0.19349082  0.50624553    -0.16800
C391        C  0.49597467  0.22038126  0.45621390     0.03700
C392        C  0.49697709  0.27756394  0.45543424     0.03700
C393        C  0.49662544  0.30540083  0.50472236    -0.16800
H394        H  0.49671939  0.34922102  0.50405852     0.05700
H395        H  0.49634673  0.14966519  0.50687977     0.05700
C396        C  0.50078048  0.39819933  0.33001941    -0.03900
C397        C  0.96781951  0.36734549  0.33754599    -0.01000
C398        C  0.96717156  0.32441746  0.37552404     0.04000
C399        C  0.49980410  0.31144662  0.40543124    -0.03900
C400        C  0.53331552  0.34101750  0.39562110    -0.01000
C401        C  0.53391494  0.38343486  0.35738626     0.04000
C402        C  0.93384607  0.38218301  0.30874822     0.38600
C403        C  0.56616787  0.33178037  0.42895779     0.38600
C404        C  0.56829003  0.41369079  0.34781551     0.37000
C405        C  0.93169388  0.29825656  0.38796047     0.37000
N406        N  0.59564877  0.43786382  0.33996875    -0.37800
N407        N  0.90270364  0.27903487  0.39743000    -0.37800
N408        N  0.59217769  0.32527242  0.45611788    -0.37200
N409        N  0.90679955  0.39412027  0.28571577    -0.37200
C410        C  0.49442671  0.18556274  0.40711550    -0.03900
C411        C  0.96119995  0.15588492  0.39709345    -0.01000
C412        C  0.96135873  0.11406684  0.35862458     0.04000
C413        C  0.49507775  0.09948915  0.33164784    -0.03900
C414        C  0.52809857  0.12944106  0.34064005    -0.01000
C415        C  0.52788016  0.17207134  0.37843072     0.04000
C416        C  0.92778269  0.16441751  0.43038836     0.38600
C417        C  0.56301253  0.11371003  0.31381088     0.38600
C418        C  0.56321411  0.19722760  0.39217509     0.37000
C419        C  0.92707859  0.08435021  0.34828623     0.37000
N420        N  0.59210234  0.21551866  0.40281946    -0.37800
N421        N  0.89977727  0.06065292  0.33981717    -0.37800
N422        N  0.59082735  0.10090719  0.29249500    -0.37200
N423        N  0.90134131  0.17040713  0.45756623    -0.37200
C424        C  0.50269956  0.09978235  0.67955402    -0.03900
C425        C  0.97006535  0.13227084  0.67510143    -0.01000
C426        C  0.96914708  0.17563723  0.63769592     0.04000
C427        C  0.50115171  0.18724686  0.60513845    -0.03900
C428        C  0.53444525  0.15609022  0.61192397    -0.01000
C429        C  0.53532614  0.11318405  0.64953760     0.04000
C430        C  0.93649767  0.11849285  0.70616758     0.38600
C431        C  0.56671953  0.16454019  0.57633487     0.38600
C432        C  0.56939636  0.08110069  0.65573730     0.37000
C433        C  0.93387910  0.20387291  0.62878729     0.37000
N434        N  0.59647852  0.55538687  0.66078056    -0.37800
N435        N  0.90504196  0.22483407  0.62231776    -0.37800
N436        N  0.59227283  0.17065440  0.54749307    -0.37200
N437        N  0.90973257  0.10731516  0.73085813    -0.37200
C438        C  0.49636320  0.39877722  0.67992601    -0.03900
C439        C  0.52860008  0.36605892  0.67194019    -0.01000
C440        C  0.52826694  0.32403485  0.63348317     0.04000
C441        C  0.49517513  0.31315737  0.60410982    -0.03900
C442        C  0.96237383  0.34462234  0.61431522    -0.01000
C443        C  0.96290047  0.38667664  0.65244423     0.04000
C444        C  0.56292361  0.37801156  0.70077138     0.38600
C445        C  0.92893940  0.33712085  0.58199453     0.38600
C446        C  0.92933595  0.41919978  0.66194577     0.37000
C447        C  0.56331811  0.29684831  0.61995219     0.37000
N448        N  0.90271762  0.94534383  0.66971712    -0.37800
N449        N  0.59208379  0.27702970  0.60960474    -0.37800
N450        N  0.90240424  0.33170364  0.55582642    -0.37200
N451        N  0.59028331  0.38750669  0.72381712    -0.37200
C452        C  0.82174903  0.19247199  0.99342381    -0.03900
C453        C  0.83627810  0.17777991  0.04422925    -0.01000
C454        C  0.87198211  0.15302201  0.04778411     0.04000
C455        C  0.89261757  0.14010363  0.00021211    -0.03900
C456        C  0.87752186  0.15398104  0.94917092    -0.01000
C457        C  0.84191890  0.17927734  0.94591383     0.04000
C458        C  0.81339276  0.18465342  0.09266083     0.38600
C459        C  0.89743526  0.13961578  0.89971607     0.38600
C460        C  0.82459192  0.18759913  0.89367843     0.37000
C461        C  0.88737655  0.14090136  0.10067269     0.37000
N462        N  0.81055560  0.19305477  0.85198641    -0.37800
N463        N  0.89956006  0.13128869  0.14288372    -0.37800
N464        N  0.91335250  0.12825970  0.86028404    -0.37200
N465        N  0.79508378  0.18888635  0.13141696    -0.37200
C466        C  0.60964592  0.36172858  0.99818285    -0.03900
C467        C  0.62543759  0.34880103  0.94700266    -0.01000
C468        C  0.66063017  0.32215641  0.94355347     0.04000
C469        C  0.68012517  0.30821343  0.99102014    -0.03900
C470        C  0.66512196  0.32282709  0.04184377    -0.01000
C471        C  0.62950239  0.34778677  0.04559602     0.04000
C472        C  0.60688189  0.36598381  0.89774275     0.38600
C473        C  0.68743172  0.31564757  0.09013544     0.38600
C474        C  0.61342569  0.35928442  0.09854986     0.37000
C475        C  0.67810480  0.31275848  0.89116320     0.37000
N476        N  0.60064012  0.36846908  0.14075936    -0.37800
N477        N  0.69215140  0.30623007  0.84925802    -0.37800
N478        N  0.70521946  0.31123554  0.12884157    -0.37200
N479        N  0.59220632  0.37988216  0.85844385    -0.37200
C480        C  0.61054540  0.13754090  0.99695100    -0.03900
C481        C  0.62773186  0.14915771  0.94626816    -0.01000
C482        C  0.66344312  0.17399270  0.94390932     0.04000
C483        C  0.68142631  0.18953890  0.99183078    -0.03900
C484        C  0.66487752  0.17672009  0.04230295    -0.01000
C485        C  0.62915942  0.15228664  0.04492398     0.04000
C486        C  0.60962126  0.13366238  0.89645758     0.38600
C487        C  0.68575242  0.18495850  0.09157110     0.38600
C488        C  0.61139558  0.14285307  0.09728393     0.37000
C489        C  0.68314245  0.17956185  0.89251973     0.37000
N490        N  0.59713732  0.13541699  0.13895535    -0.37800
N491        N  0.69922814  0.18284694  0.85168973    -0.37800
N492        N  0.70240059  0.19007985  0.13114064    -0.37200
N493        N  0.59519089  0.12167254  0.85659745    -0.37200
C494        C  0.82028612  0.31113125  0.99223477    -0.03900
C495        C  0.83986272  0.32702727  0.94490594    -0.01000
C496        C  0.87510691  0.35285533  0.94851651     0.04000
C497        C  0.89064506  0.36394387  0.99975578    -0.03900
C498        C  0.87046326  0.34881345  0.04707336    -0.01000
C499        C  0.83493629  0.32414557  0.04320669     0.04000
C500        C  0.82245314  0.32039597  0.89264172     0.38600
C501        C  0.88637300  0.35798067  0.10001551     0.38600
C502        C  0.81230802  0.31568072  0.09163224     0.37000
C503        C  0.89428363  0.37043228  0.89938401     0.37000
N504        N  0.79421526  0.31032752  0.13047323    -0.37800
N505        N  0.90956909  0.38443487  0.86020466    -0.37800
N506        N  0.89905649  0.36502148  0.14226757    -0.37200
N507        N  0.80842842  0.31619234  0.85088509    -0.37200
Zn508      Zn  0.95657620  0.00047062  0.05182220     1.49700
Zn509      Zn  0.50050436  0.93465174  0.96038062     1.49400
Zn510      Zn  0.00131395  0.56551189  0.95897210     1.49100
Zn511      Zn  0.54474680  0.00033146  0.05068629     1.49500
O512        O  0.50077600  0.50028318  0.00491983    -1.82700
O513        O  0.92329153  0.93800472  0.03649355    -0.73300
O514        O  0.50061805  0.95454851  0.88158260    -0.73100
O515        O  0.95454122  0.61126142  0.97231779    -0.72700
O516        O  0.95308746  0.89070468  0.97306447    -0.73300
O517        O  0.92450530  0.56420343  0.03601169    -0.72900
O518        O  0.00072611  0.54417446  0.88063205    -0.73500
O519        O  0.57754630  0.56304394  0.03374933    -0.72900
O520        O  0.54756489  0.88957289  0.97205616    -0.73700
O521        O  0.54890427  0.60968188  0.96912215    -0.73100
O522        O  0.57730075  0.93714649  0.03409906    -0.73500
O523        O  0.53191895  0.00049887  0.13038986    -0.73400
O524        O  0.96924020  0.00061167  0.13089085    -0.73200
C525        C  0.92456993  0.89863671  0.00384436     0.78600
C526        C  0.50061470  0.49922276  0.85591270     0.79100
C527        C  0.92615160  0.60406426  0.00354993     0.78000
C528        C  0.57680371  0.60222368  0.00038660     0.78400
C529        C  0.57596174  0.89736406  0.00206129     0.79500
C530        C  0.00046900  0.00069162  0.15559760     0.78600
C531        C  0.78484760  0.77953402  0.98873568     0.03700
C532        C  0.78554199  0.72252239  0.99006549     0.03700
C533        C  0.75167396  0.69368558  0.98988942    -0.16800
C534        C  0.71701910  0.72098740  0.98921725     0.03700
C535        C  0.71632156  0.77799946  0.98790114     0.03700
C536        C  0.75020481  0.80680722  0.98724332    -0.16800
H537        H  0.74957517  0.85048375  0.98718767     0.05700
H538        H  0.75228569  0.65002572  0.99140275     0.05700
C539        C  0.00051195  0.49896375  0.79611570     0.04600
C540        C  0.00153875  0.54801147  0.76708222    -0.11600
C541        C  0.00145855  0.54821766  0.71055660     0.02100
C542        C  0.00012657  0.49919313  0.68272527    -0.10100
C543        C  0.99891600  0.94995166  0.71091607     0.04600
C544        C  0.99929000  0.94990218  0.76757477    -0.09500
H545        H  0.00253818  0.58616962  0.78815517     0.10200
H546        H  0.49983318  0.49938056  0.63890392     0.07700
H547        H  0.99824713  0.91171269  0.78911878     0.07500
C548        C  0.00006431  0.00031613  0.21478177     0.04600
C549        C  0.00062424  0.95089557  0.24280845    -0.11600
C550        C  0.99945202  0.95001662  0.29939521     0.02100
C551        C  0.99753343  0.99883743  0.32778550    -0.10100
C552        C  0.99693527  0.54847535  0.30012618     0.04600
C553        C  0.99830783  0.54908652  0.24342756    -0.09500
H554        H  0.00201085  0.91327993  0.22071881     0.10200
H555        H  0.99665589  0.99819511  0.37161292     0.07700
H556        H  0.99778920  0.58725027  0.22176638     0.07500
C557        C  0.49668850  0.77848193  0.55481574     0.03700
C558        C  0.49753424  0.72129251  0.55547322     0.03700
C559        C  0.49636122  0.69349133  0.50624831    -0.16800
C560        C  0.49596482  0.72038317  0.45621725     0.03700
C561        C  0.49696784  0.77756589  0.45543820     0.03700
C562        C  0.49662022  0.80540106  0.50472712    -0.16800
H563        H  0.49671602  0.84922122  0.50406422     0.05700
H564        H  0.49633637  0.64966575  0.50688130     0.05700
C565        C  0.50077397  0.89820347  0.33002201    -0.03900
C566        C  0.96781059  0.86735556  0.33755352    -0.01000
C567        C  0.96716095  0.82442785  0.37553244     0.04000
C568        C  0.49979428  0.81145038  0.40543556    -0.03900
C569        C  0.53330706  0.84101741  0.39562326    -0.01000
C570        C  0.53390777  0.88343611  0.35738950     0.04000
C571        C  0.93383647  0.88220037  0.30876096     0.38600
C572        C  0.56616023  0.83177437  0.42895676     0.38600
C573        C  0.56828346  0.91369177  0.34782283     0.37000
C574        C  0.93168161  0.79827355  0.38797346     0.37000
N575        N  0.59564287  0.93786480  0.33998130    -0.37800
N576        N  0.90269025  0.77905706  0.39744704    -0.37800
N577        N  0.59217071  0.82526128  0.45611442    -0.37200
N578        N  0.90678963  0.89414464  0.28573271    -0.37200
C579        C  0.49441878  0.68556486  0.40711894    -0.03900
C580        C  0.96119291  0.65588522  0.39709586    -0.01000
C581        C  0.96135530  0.61406039  0.35863412     0.04000
C582        C  0.49507545  0.59948483  0.33165880    -0.03900
C583        C  0.52809478  0.62944002  0.34065053    -0.01000
C584        C  0.52787411  0.67207132  0.37843972     0.04000
C585        C  0.92777256  0.66442409  0.43038272     0.38600
C586        C  0.56301000  0.61371105  0.31382339     0.38600
C587        C  0.56320789  0.69722491  0.39218965     0.37000
C588        C  0.92707835  0.58433331  0.34830361     0.37000
N589        N  0.59209661  0.71551174  0.40283831    -0.37800
N590        N  0.89978007  0.56062609  0.33984198    -0.37800
N591        N  0.59082608  0.60091074  0.29250941    -0.37200
N592        N  0.90132829  0.67041878  0.45755363    -0.37200
C593        C  0.50268608  0.59977819  0.67955818    -0.03900
C594        C  0.97005594  0.63227522  0.67510825    -0.01000
C595        C  0.96914227  0.67564402  0.63770502     0.04000
C596        C  0.50114595  0.68724309  0.60514137    -0.03900
C597        C  0.53443502  0.65607480  0.61192137    -0.01000
C598        C  0.53531280  0.61317059  0.64953773     0.04000
C599        C  0.93648673  0.61850271  0.70617338     0.38600
C600        C  0.56670708  0.66451094  0.57632467     0.38600
C601        C  0.56937966  0.58107961  0.65573662     0.37000
C602        C  0.93387881  0.70389441  0.62880612     0.37000
N603        N  0.59649800  0.05541396  0.66078081    -0.37800
N604        N  0.90504490  0.72486778  0.62234590    -0.37800
N605        N  0.59225832  0.67061362  0.54747660    -0.37200
N606        N  0.90971995  0.60732859  0.73086177    -0.37200
C607        C  0.49638333  0.89878097  0.67992318    -0.03900
C608        C  0.52861603  0.86605478  0.67193517    -0.01000
C609        C  0.52827444  0.82402597  0.63348352     0.04000
C610        C  0.49517951  0.81315636  0.60411413    -0.03900
C611        C  0.96238281  0.84463084  0.61432137    -0.01000
C612        C  0.96291689  0.88668594  0.65244850     0.04000
C613        C  0.56294365  0.87800329  0.70075820     0.38600
C614        C  0.92894580  0.83713866  0.58200387     0.38600
C615        C  0.92935636  0.91921633  0.66195491     0.37000
C616        C  0.56332012  0.79682375  0.61995458     0.37000
N617        N  0.90269359  0.44532105  0.66970336    -0.37800
N618        N  0.59208120  0.77699058  0.60960870    -0.37800
N619        N  0.90240856  0.83172937  0.55583836    -0.37200
N620        N  0.59030697  0.88749511  0.72379664    -0.37200
C621        C  0.82174734  0.69246190  0.99342168    -0.03900
C622        C  0.83627699  0.67777612  0.04422862    -0.01000
C623        C  0.87197787  0.65300855  0.04778460     0.04000
C624        C  0.89261282  0.64008566  0.00021307    -0.03900
C625        C  0.87751559  0.65395552  0.94917099    -0.01000
C626        C  0.84191303  0.67925227  0.94591257     0.04000
C627        C  0.81339568  0.68466739  0.09266148     0.38600
C628        C  0.89742649  0.63958071  0.89971700     0.38600
C629        C  0.82458105  0.68755781  0.89367815     0.37000
C630        C  0.88736827  0.64087908  0.10067383     0.37000
N631        N  0.81053942  0.69300021  0.85198827    -0.37800
N632        N  0.89954787  0.63125677  0.14288513    -0.37800
N633        N  0.91334145  0.62821734  0.86028529    -0.37200
N634        N  0.79509086  0.68891475  0.13141998    -0.37200
C635        C  0.60965796  0.86175401  0.99816327    -0.03900
C636        C  0.62544571  0.84882438  0.94698095    -0.01000
C637        C  0.66063439  0.82216894  0.94352710     0.04000
C638        C  0.68012979  0.80821816  0.99099135    -0.03900
C639        C  0.66513228  0.82283829  0.04181652    -0.01000
C640        C  0.62951730  0.84781091  0.04557352     0.04000
C641        C  0.60689112  0.86601805  0.89772378     0.38600
C642        C  0.68744390  0.81565198  0.09010536     0.38600
C643        C  0.61344938  0.85932238  0.09852962     0.37000
C644        C  0.67810456  0.81276682  0.89113465     0.37000
N645        N  0.60067163  0.86851951  0.14074106    -0.37800
N646        N  0.69214735  0.80623521  0.84922739    -0.37800
N647        N  0.70523251  0.81123514  0.12881007    -0.37200
N648        N  0.59221688  0.87992624  0.85842720    -0.37200
C649        C  0.61054995  0.63752681  0.99696173    -0.03900
C650        C  0.62772750  0.64915778  0.94627606    -0.01000
C651        C  0.66343707  0.67399679  0.94391092     0.04000
C652        C  0.68142565  0.68953965  0.99182915    -0.03900
C653        C  0.66488562  0.67670913  0.04230433    -0.01000
C654        C  0.62917146  0.65226341  0.04493212     0.04000
C655        C  0.60960953  0.63367287  0.89646775     0.38600
C656        C  0.68576496  0.68495195  0.09156793     0.38600
C657        C  0.61141985  0.64280784  0.09729659     0.37000
C658        C  0.68313038  0.67957053  0.89251715     0.37000
N659        N  0.59717221  0.63535356  0.13897218    -0.37800
N660        N  0.69921137  0.68285779  0.85168359    -0.37800
N661        N  0.70241668  0.69007832  0.13113368    -0.37200
N662        N  0.59517278  0.62169191  0.85660971    -0.37200
C663        C  0.82029043  0.81112268  0.99220468    -0.03900
C664        C  0.83987722  0.82699934  0.94487778    -0.01000
C665        C  0.87512164  0.85282702  0.94849282     0.04000
C666        C  0.89064774  0.86394118  0.99973433    -0.03900
C667        C  0.87045619  0.84882807  0.04704921    -0.01000
C668        C  0.83493110  0.82415555  0.04317742     0.04000
C669        C  0.82247786  0.82034991  0.89260896     0.38600
C670        C  0.88635431  0.85801630  0.09999489     0.38600
C671        C  0.81229552  0.81570245  0.09159802     0.37000
C672        C  0.89431214  0.87037344  0.89936046     0.37000
N673        N  0.79419772  0.81035783  0.13043530    -0.37800
N674        N  0.90960893  0.88434965  0.86018069    -0.37800
N675        N  0.89902811  0.86507388  0.14225010    -0.37200
N676        N  0.80846164  0.81613309  0.85084778    -0.37200
loop_ 
_geom_bond_atom_site_label_1 
_geom_bond_atom_site_label_2 
_geom_bond_distance 
_geom_bond_site_symmetry_2 
_ccdc_geom_bond_type 
Zn1           O6   1.993       .  S
Zn1          O17   2.012       .  S
Zn1         O179   1.980       .  S
Zn1         O512   1.940       .  S
Zn2           O7   2.008       .  S
Zn2          O13   2.025       .  S
Zn2         O347   2.029   1_455  S
Zn2         O174   1.970   1_556  S
Zn3           O8   2.029       .  S
Zn3          O11   2.013       .  S
Zn3         O352   2.036       .  S
Zn3         O343   1.969   1_556  S
Zn4          O15   1.982       .  S
Zn4          O16   2.019       .  S
Zn4         O181   1.986       .  S
Zn4         O174   1.938       .  S
O5         Zn508   1.940   1_455  S
O5         Zn171   1.970   1_544  S
O5         Zn341   1.969   1_554  S
O5         Zn173   1.938       .  S
O6           C18   1.271       .  A
O7          C188   1.272       .  A
O8           C20   1.275   1_556  A
O9         Zn340   2.029       .  S
O9           C18   1.275   1_556  A
O10        Zn170   1.980       .  S
O10          C20   1.270       .  A
O11         C357   1.274   1_545  A
O12        Zn173   1.986       .  S
O12          C21   1.270       .  A
O13          C22   1.274   1_556  A
O14        Zn341   2.036       .  S
O14          C21   1.275   1_556  A
O15          C22   1.270       .  A
O16         C361   1.272       .  A
O17          C23   1.271       .  A
C18         C159   1.488   1_554  S
C19         O176   1.272       .  A
C19         O349   1.274   1_565  A
C19         C370   1.480       .  S
C20         C117   1.486       .  S
C21         C142   1.488   1_554  S
C22         C128   1.484   1_554  S
C23         O354   1.272       .  A
C23          C41   1.464       .  S
C24         C156   1.488       .  S
C24          C25   1.412       .  A
C24          C29   1.400       .  A
C25         C114   1.484       .  S
C25          C26   1.401       .  A
C26          C27   1.400       .  A
C26          H31   1.082       .  S
C27         C145   1.488       .  S
C27          C28   1.412       .  A
C28         C131   1.484       .  S
C28          C29   1.401       .  A
C29          H30   1.082       .  S
C32         C357   1.480       .  S
C32          C33   1.408   1_565  A
C32         C206   1.411       .  A
C33          C34   1.399       .  A
C33          H38   1.084       .  S
C34         C424   1.486       .  S
C34          C35   1.401   1_545  A
C35         C205   1.402       .  A
C35         H377   1.084       .  S
C36         C438   1.490       .  S
C36          C37   1.402       .  A
C36         C204   1.402       .  A
C37         C201   1.411       .  A
C37          H40   1.083       .  S
H39         C373   1.084   1_655  S
C41          C42   1.403       .  A
C41         C215   1.405       .  A
C42          C43   1.400       .  A
C42          H47   1.084       .  S
C43         C396   1.487       .  S
C43          C44   1.404       .  A
C44         C214   1.404       .  A
C44          H48   1.085       .  S
C45         C413   1.490       .  S
C45          C46   1.403       .  A
C45         C213   1.404   1_545  A
C46         C210   1.405       .  A
C46          H49   1.084       .  S
C50         C103   1.497       .  S
C50          C51   1.417       .  A
C50          C55   1.403       .  A
C51          C89   1.492   1_655  S
C51          C52   1.404       .  A
C52          C53   1.402       .  A
C52          H57   1.086       .  S
C53          C72   1.496       .  S
C53          C54   1.417       .  A
C54          C61   1.493       .  S
C54          C55   1.405       .  A
C55          H56   1.086       .  S
C58         C381   1.487   1_455  S
C58          C63   1.408       .  A
C58         C397   1.411   1_455  A
C59          C60   1.414       .  A
C59         C396   1.411       .  A
C59          C64   1.451       .  S
C60         C399   1.415       .  A
C60          C67   1.448       .  S
C61          C62   1.418   1_655  A
C61         C398   1.415       .  A
C62          C63   1.409       .  A
C62          C65   1.451       .  S
C63          C66   1.451       .  S
C64          N71   1.157       .  T
C65          N70   1.157       .  T
C66          N68   1.157       .  T
C67          N69   1.157       .  T
C72          C77   1.415   1_655  A
C72         C411   1.418       .  A
C73          C74   1.411       .  A
C73         C410   1.418       .  A
C73          C78   1.451       .  S
C74         C413   1.410       .  A
C74          C81   1.451       .  S
C75         C383   1.490       .  S
C75          C76   1.411   1_655  A
C75         C412   1.410       .  A
C76          C77   1.415       .  A
C76          C79   1.451       .  S
C77          C80   1.448       .  S
C78          N85   1.157       .  T
C79          N84   1.157       .  T
C80          N82   1.157       .  T
C81          N83   1.157       .  T
C86         C372   1.486       .  S
C86          C91   1.408       .  A
C86         C425   1.411   1_455  A
C87          C88   1.414       .  A
C87         C424   1.411       .  A
C87          C92   1.451       .  S
C88         C427   1.415       .  A
C88          C95   1.448       .  S
C89          C90   1.418       .  A
C89         C426   1.415   1_455  A
C90          C91   1.408       .  A
C90          C93   1.452       .  S
C91          C94   1.452       .  S
C92          N99   1.157       .  T
C93          N98   1.157       .  T
C94         N265   1.157       .  T
C95          N97   1.157       .  T
N96         C263   1.157       .  T
C100        C374   1.490       .  S
C100        C101   1.411   1_655  A
C100        C443   1.409       .  A
C101        C102   1.415       .  A
C101        C106   1.451       .  S
C102        C103   1.416   1_455  A
C102        C109   1.448       .  S
C103        C442   1.418       .  A
C104        C105   1.410       .  A
C104        C441   1.418       .  A
C104        C107   1.451       .  S
C105        C438   1.409       .  A
C105        C108   1.452       .  S
C106        N113   1.157       .  T
C107        N112   1.157       .  T
C108        N279   1.157       .  T
C109        N111   1.157       .  T
N110        C277   1.157       .  T
C114        C115   1.409   1_556  A
C114        C119   1.409       .  A
C115        C116   1.407       .  A
C115        C120   1.450       .  S
C116        C117   1.417       .  A
C116        C123   1.452       .  S
C117        C118   1.417   1_554  A
C118        C119   1.410       .  A
C118        C121   1.451       .  S
C119        C122   1.450       .  S
C120        N127   1.157       .  T
C121        N126   1.157       .  T
C122        N124   1.157       .  T
C123        N125   1.158       .  T
C128        C129   1.417       .  A
C128        C133   1.415   1_556  A
C129        C130   1.411       .  A
C129        C134   1.452       .  S
C130        C131   1.410       .  A
C130        C137   1.450       .  S
C131        C132   1.409   1_556  A
C132        C133   1.406       .  A
C132        C135   1.450       .  S
C133        C136   1.452       .  S
C134        N141   1.157       .  T
C135        N140   1.157       .  T
C136        N138   1.157       .  T
C137        N139   1.157       .  T
C142        C143   1.417       .  A
C142        C147   1.416   1_556  A
C143        C144   1.412       .  A
C143        C148   1.451       .  S
C144        C145   1.410       .  A
C144        C151   1.450       .  S
C145        C146   1.409   1_556  A
C146        C147   1.408       .  A
C146        C149   1.450       .  S
C147        C150   1.452       .  S
C148        N155   1.158       .  T
C149        N154   1.157       .  T
C150        N152   1.157       .  T
C151        N153   1.157       .  T
C156        C157   1.410       .  A
C156        C161   1.409   1_556  A
C157        C158   1.412       .  A
C157        C162   1.450       .  S
C158        C159   1.417       .  A
C158        C165   1.452       .  S
C159        C160   1.415   1_556  A
C160        C161   1.408       .  A
C160        C163   1.452       .  S
C161        C164   1.450       .  S
C162        N169   1.157       .  T
C163        N168   1.157       .  T
C164        N166   1.157       .  T
C165        N167   1.158       .  T
Zn170       O175   1.993   1_545  S
Zn170       O186   2.012       .  S
Zn170       O343   1.940       .  S
Zn171       O176   2.008       .  S
Zn171       O516   2.029   1_455  S
Zn171       O182   2.025       .  S
Zn172       O177   2.029       .  S
Zn172       O180   2.013       .  S
Zn172       O521   2.036       .  S
Zn172       O512   1.969   1_556  S
Zn173       O184   1.982   1_545  S
Zn173       O185   2.019       .  S
O174       Zn339   1.940   1_455  S
O174       Zn510   1.969   1_554  S
O175        C187   1.271       .  A
O177        C189   1.275   1_556  A
O178       Zn509   2.029       .  S
O178        C187   1.275   1_556  A
O179        C189   1.270       .  A
O180        C526   1.274       .  A
O181        C190   1.270       .  A
O182        C191   1.274   1_556  A
O183       Zn510   2.036       .  S
O183        C190   1.275   1_556  A
O184        C191   1.270       .  A
O185        C530   1.272       .  A
O186        C192   1.271       .  A
C187        C328   1.488   1_554  S
C188        O518   1.274       .  A
C188        C539   1.480       .  S
C189        C286   1.486       .  S
C190        C311   1.488   1_554  S
C191        C297   1.484   1_554  S
C192        O523   1.272       .  A
C192        C210   1.464       .  S
C193        C325   1.488       .  S
C193        C194   1.412       .  A
C193        C198   1.400       .  A
C194        C283   1.484       .  S
C194        C195   1.401       .  A
C195        C196   1.400       .  A
C195        H200   1.082       .  S
C196        C314   1.488       .  S
C196        C197   1.413       .  A
C197        C300   1.484       .  S
C197        C198   1.401       .  A
C198        H199   1.082       .  S
C201        C526   1.480       .  S
C201        C202   1.408       .  A
C202        C203   1.399       .  A
C202        H207   1.084       .  S
C203        C593   1.486       .  S
C203        C204   1.401       .  A
C204        H546   1.084       .  S
C205        C607   1.490       .  S
C205        C206   1.402       .  A
C206        H209   1.083       .  S
H208        C542   1.084   1_655  S
C210        C211   1.403   1_545  A
C211        C212   1.400       .  A
C211        H216   1.084       .  S
C212        C565   1.487       .  S
C212        C213   1.404       .  A
C213        H217   1.085       .  S
C214        C582   1.490       .  S
C214        C215   1.403       .  A
C215        H218   1.084       .  S
C219        C272   1.497       .  S
C219        C220   1.417       .  A
C219        C224   1.403       .  A
C220        C258   1.492   1_655  S
C220        C221   1.404       .  A
C221        C222   1.402       .  A
C221        H226   1.086       .  S
C222        C241   1.496       .  S
C222        C223   1.417       .  A
C223        C230   1.493       .  S
C223        C224   1.405       .  A
C224        H225   1.086       .  S
C227        C550   1.487   1_455  S
C227        C566   1.411   1_455  A
C227        C232   1.408       .  A
C228        C565   1.411       .  A
C228        C229   1.414       .  A
C228        C233   1.451       .  S
C229        C568   1.415       .  A
C229        C236   1.448       .  S
C230        C567   1.415       .  A
C230        C231   1.418   1_655  A
C231        C232   1.409       .  A
C231        C234   1.451       .  S
C232        C235   1.451       .  S
C233        N240   1.157       .  T
C234        N239   1.157       .  T
C235        N237   1.157       .  T
C236        N238   1.157       .  T
C241        C580   1.418       .  A
C241        C246   1.415   1_655  A
C242        C579   1.418       .  A
C242        C243   1.411       .  A
C242        C247   1.451       .  S
C243        C582   1.410       .  A
C243        C250   1.451       .  S
C244        C552   1.490       .  S
C244        C581   1.410       .  A
C244        C245   1.411   1_655  A
C245        C246   1.415       .  A
C245        C248   1.451       .  S
C246        C249   1.448       .  S
C247        N254   1.157       .  T
C248        N253   1.157       .  T
C249        N251   1.157       .  T
C250        N252   1.157       .  T
C255        C541   1.486       .  S
C255        C594   1.411   1_455  A
C255        C260   1.408       .  A
C256        C593   1.411       .  A
C256        C257   1.414       .  A
C256        C261   1.451       .  S
C257        C596   1.415       .  A
C257        C264   1.448       .  S
C258        C595   1.415   1_455  A
C258        C259   1.418       .  A
C259        C260   1.408       .  A
C259        C262   1.452       .  S
C260        C263   1.452       .  S
C261        N268   1.157       .  T
C262        N267   1.157       .  T
C264        N266   1.157       .  T
C269        C543   1.490       .  S
C269        C270   1.411   1_655  A
C269        C612   1.409       .  A
C270        C271   1.415       .  A
C270        C275   1.451       .  S
C271        C272   1.416   1_455  A
C271        C278   1.448       .  S
C272        C611   1.418       .  A
C273        C610   1.418       .  A
C273        C274   1.410       .  A
C273        C276   1.451       .  S
C274        C607   1.409       .  A
C274        C277   1.452       .  S
C275        N282   1.157       .  T
C276        N281   1.157       .  T
C278        N280   1.157       .  T
C283        C284   1.409   1_556  A
C283        C288   1.409       .  A
C284        C285   1.407       .  A
C284        C289   1.450       .  S
C285        C286   1.417       .  A
C285        C292   1.452       .  S
C286        C287   1.417   1_554  A
C287        C288   1.410       .  A
C287        C290   1.451       .  S
C288        C291   1.450       .  S
C289        N296   1.157       .  T
C290        N295   1.157       .  T
C291        N293   1.157       .  T
C292        N294   1.158       .  T
C297        C298   1.417       .  A
C297        C302   1.415   1_556  A
C298        C299   1.411       .  A
C298        C303   1.452       .  S
C299        C300   1.410       .  A
C299        C306   1.450       .  S
C300        C301   1.409   1_556  A
C301        C302   1.406       .  A
C301        C304   1.450       .  S
C302        C305   1.452       .  S
C303        N310   1.157       .  T
C304        N309   1.157       .  T
C305        N307   1.157       .  T
C306        N308   1.157       .  T
C311        C312   1.417       .  A
C311        C316   1.416   1_556  A
C312        C313   1.412       .  A
C312        C317   1.451       .  S
C313        C314   1.410       .  A
C313        C320   1.450       .  S
C314        C315   1.409   1_556  A
C315        C316   1.408       .  A
C315        C318   1.450       .  S
C316        C319   1.452       .  S
C317        N324   1.158       .  T
C318        N323   1.157       .  T
C319        N321   1.157       .  T
C320        N322   1.157       .  T
C325        C326   1.410       .  A
C325        C330   1.409   1_556  A
C326        C327   1.412       .  A
C326        C331   1.450       .  S
C327        C328   1.417       .  A
C327        C334   1.452       .  S
C328        C329   1.415   1_556  A
C329        C330   1.408       .  A
C329        C332   1.452       .  S
C330        C333   1.450       .  S
C331        N338   1.157       .  T
C332        N337   1.157       .  T
C333        N335   1.157       .  T
C334        N336   1.158       .  T
Zn339       O344   1.993       .  S
Zn339       O517   1.980       .  S
Zn339       O355   2.012       .  S
Zn340       O345   2.008       .  S
Zn340       O351   2.025       .  S
Zn340       O512   1.970   1_556  S
Zn341       O346   2.029   1_455  S
Zn341       O349   2.013       .  S
Zn342       O519   1.986       .  S
Zn342       O353   1.982       .  S
Zn342       O354   2.019       .  S
Zn342       O512   1.938       .  S
O343       Zn509   1.970   1_544  S
O343       Zn511   1.938       .  S
O344        C356   1.271       .  A
O345        C526   1.272       .  A
O346        C358   1.275   1_556  A
O347        C356   1.275   1_556  A
O348       Zn508   1.980       .  S
O348        C358   1.270       .  A
O350       Zn511   1.986       .  S
O350        C359   1.270       .  A
O351        C360   1.274   1_556  A
O352        C359   1.275   1_556  A
O353        C360   1.270       .  A
O355        C361   1.271   1_655  A
C356        C497   1.488   1_554  S
C357        O514   1.272       .  A
C358        C455   1.486       .  S
C359        C480   1.488   1_554  S
C360        C466   1.484   1_554  S
C361        C379   1.464       .  S
C362        C494   1.488       .  S
C362        C363   1.412       .  A
C362        C367   1.400       .  A
C363        C452   1.484       .  S
C363        C364   1.401       .  A
C364        C365   1.400       .  A
C364        H369   1.082       .  S
C365        C483   1.488       .  S
C365        C366   1.412       .  A
C366        C469   1.484       .  S
C366        C367   1.401       .  A
C367        H368   1.082       .  S
C370        C371   1.408   1_565  A
C370        C544   1.411   1_455  A
C371        C372   1.399       .  A
C371        H376   1.084       .  S
C372        C373   1.401   1_545  A
C373        C543   1.402   1_455  A
C374        C542   1.402   1_655  A
C374        C375   1.402       .  A
C375        C539   1.411   1_655  A
C375        H378   1.083       .  S
C379        C380   1.403       .  A
C379        C553   1.405   1_455  A
C380        C381   1.400   1_455  A
C380        H385   1.084       .  S
C381        C382   1.404       .  A
C382        C552   1.404       .  A
C382        H386   1.085       .  S
C383        C551   1.404   1_545  A
C383        C384   1.403       .  A
C384        C548   1.405   1_655  A
C384        H387   1.084       .  S
C388        C441   1.497       .  S
C388        C389   1.417       .  A
C388        C393   1.403       .  A
C389        C427   1.492       .  S
C389        C390   1.404       .  A
C390        C391   1.402       .  A
C390        H395   1.086       .  S
C391        C410   1.496       .  S
C391        C392   1.417       .  A
C392        C399   1.493       .  S
C392        C393   1.405       .  A
C393        H394   1.086       .  S
C396        C401   1.408       .  A
C397        C398   1.414       .  A
C397        C402   1.451       .  S
C398        C405   1.448       .  S
C399        C400   1.418       .  A
C400        C401   1.409       .  A
C400        C403   1.451       .  S
C401        C404   1.451       .  S
C402        N409   1.157       .  T
C403        N408   1.157       .  T
C404        N406   1.157       .  T
C405        N407   1.157       .  T
C410        C415   1.415       .  A
C411        C412   1.411       .  A
C411        C416   1.451       .  S
C412        C419   1.451       .  S
C413        C414   1.411       .  A
C414        C415   1.415       .  A
C414        C417   1.451       .  S
C415        C418   1.448       .  S
C416        N423   1.157       .  T
C417        N422   1.157       .  T
C418        N420   1.157       .  T
C419        N421   1.157       .  T
C424        C429   1.408       .  A
C425        C426   1.414       .  A
C425        C430   1.451       .  S
C426        C433   1.448       .  S
C427        C428   1.418       .  A
C428        C429   1.408       .  A
C428        C431   1.452       .  S
C429        C432   1.452       .  S
C430        N437   1.157       .  T
C431        N436   1.157       .  T
C432        N603   1.157       .  T
C433        N435   1.157       .  T
N434        C601   1.157       .  T
C438        C439   1.411       .  A
C439        C440   1.415       .  A
C439        C444   1.451       .  S
C440        C441   1.416       .  A
C440        C447   1.448       .  S
C442        C443   1.410       .  A
C442        C445   1.451       .  S
C443        C446   1.452       .  S
C444        N451   1.157       .  T
C445        N450   1.157       .  T
C446        N617   1.157       .  T
C447        N449   1.157       .  T
N448        C615   1.157       .  T
C452        C453   1.409   1_556  A
C452        C457   1.409       .  A
C453        C454   1.407       .  A
C453        C458   1.450       .  S
C454        C455   1.417       .  A
C454        C461   1.452       .  S
C455        C456   1.417   1_554  A
C456        C457   1.410       .  A
C456        C459   1.451       .  S
C457        C460   1.450       .  S
C458        N465   1.157       .  T
C459        N464   1.157       .  T
C460        N462   1.157       .  T
C461        N463   1.158       .  T
C466        C467   1.417       .  A
C466        C471   1.415   1_556  A
C467        C468   1.411       .  A
C467        C472   1.452       .  S
C468        C469   1.410       .  A
C468        C475   1.450       .  S
C469        C470   1.409   1_556  A
C470        C471   1.406       .  A
C470        C473   1.450       .  S
C471        C474   1.452       .  S
C472        N479   1.157       .  T
C473        N478   1.157       .  T
C474        N476   1.157       .  T
C475        N477   1.157       .  T
C480        C481   1.417       .  A
C480        C485   1.416   1_556  A
C481        C482   1.412       .  A
C481        C486   1.451       .  S
C482        C483   1.410       .  A
C482        C489   1.450       .  S
C483        C484   1.409   1_556  A
C484        C485   1.408       .  A
C484        C487   1.450       .  S
C485        C488   1.452       .  S
C486        N493   1.158       .  T
C487        N492   1.157       .  T
C488        N490   1.157       .  T
C489        N491   1.157       .  T
C494        C495   1.410       .  A
C494        C499   1.409   1_556  A
C495        C496   1.412       .  A
C495        C500   1.450       .  S
C496        C497   1.417       .  A
C496        C503   1.452       .  S
C497        C498   1.415   1_556  A
C498        C499   1.408       .  A
C498        C501   1.452       .  S
C499        C502   1.450       .  S
C500        N507   1.157       .  T
C501        N506   1.157       .  T
C502        N504   1.157       .  T
C503        N505   1.158       .  T
Zn508       O513   1.993   1_545  S
Zn508       O524   2.012       .  S
Zn509       O514   2.008       .  S
Zn509       O520   2.025       .  S
Zn510       O515   2.029   1_455  S
Zn510       O518   2.013       .  S
Zn511       O522   1.982   1_545  S
Zn511       O523   2.019       .  S
O513        C525   1.271       .  A
O515        C527   1.275   1_556  A
O516        C525   1.275   1_556  A
O517        C527   1.270       .  A
O519        C528   1.270       .  A
O520        C529   1.274   1_556  A
O521        C528   1.275   1_556  A
O522        C529   1.270       .  A
O524        C530   1.271   1_655  A
C525        C666   1.488   1_554  S
C527        C624   1.486       .  S
C528        C649   1.488   1_554  S
C529        C635   1.484   1_554  S
C530        C548   1.464       .  S
C531        C663   1.488       .  S
C531        C532   1.412       .  A
C531        C536   1.400       .  A
C532        C621   1.484       .  S
C532        C533   1.401       .  A
C533        C534   1.400       .  A
C533        H538   1.082       .  S
C534        C652   1.488       .  S
C534        C535   1.413       .  A
C535        C638   1.484       .  S
C535        C536   1.401       .  A
C536        H537   1.082       .  S
C539        C540   1.408       .  A
C540        C541   1.399       .  A
C540        H545   1.084       .  S
C541        C542   1.401       .  A
C543        C544   1.402       .  A
C544        H547   1.083       .  S
C548        C549   1.403   1_545  A
C549        C550   1.400   1_455  A
C549        H554   1.084       .  S
C550        C551   1.404       .  A
C551        H555   1.085       .  S
C552        C553   1.403       .  A
C553        H556   1.084       .  S
C557        C610   1.497       .  S
C557        C558   1.417       .  A
C557        C562   1.403       .  A
C558        C596   1.492       .  S
C558        C559   1.404       .  A
C559        C560   1.402       .  A
C559        H564   1.086       .  S
C560        C579   1.496       .  S
C560        C561   1.417       .  A
C561        C568   1.493       .  S
C561        C562   1.405       .  A
C562        H563   1.086       .  S
C565        C570   1.408       .  A
C566        C567   1.414       .  A
C566        C571   1.451       .  S
C567        C574   1.448       .  S
C568        C569   1.418       .  A
C569        C570   1.409       .  A
C569        C572   1.451       .  S
C570        C573   1.451       .  S
C571        N578   1.157       .  T
C572        N577   1.157       .  T
C573        N575   1.157       .  T
C574        N576   1.157       .  T
C579        C584   1.415       .  A
C580        C581   1.411       .  A
C580        C585   1.451       .  S
C581        C588   1.451       .  S
C582        C583   1.411       .  A
C583        C584   1.415       .  A
C583        C586   1.451       .  S
C584        C587   1.448       .  S
C585        N592   1.157       .  T
C586        N591   1.157       .  T
C587        N589   1.157       .  T
C588        N590   1.157       .  T
C593        C598   1.408       .  A
C594        C595   1.414       .  A
C594        C599   1.451       .  S
C595        C602   1.448       .  S
C596        C597   1.418       .  A
C597        C598   1.408       .  A
C597        C600   1.452       .  S
C598        C601   1.452       .  S
C599        N606   1.157       .  T
C600        N605   1.157       .  T
C602        N604   1.157       .  T
C607        C608   1.411       .  A
C608        C609   1.415       .  A
C608        C613   1.451       .  S
C609        C610   1.416       .  A
C609        C616   1.448       .  S
C611        C612   1.410       .  A
C611        C614   1.451       .  S
C612        C615   1.452       .  S
C613        N620   1.157       .  T
C614        N619   1.157       .  T
C616        N618   1.157       .  T
C621        C622   1.409   1_556  A
C621        C626   1.409       .  A
C622        C623   1.407       .  A
C622        C627   1.450       .  S
C623        C624   1.417       .  A
C623        C630   1.452       .  S
C624        C625   1.417   1_554  A
C625        C626   1.410       .  A
C625        C628   1.451       .  S
C626        C629   1.450       .  S
C627        N634   1.157       .  T
C628        N633   1.157       .  T
C629        N631   1.157       .  T
C630        N632   1.158       .  T
C635        C636   1.417       .  A
C635        C640   1.415   1_556  A
C636        C637   1.411       .  A
C636        C641   1.452       .  S
C637        C638   1.410       .  A
C637        C644   1.450       .  S
C638        C639   1.409   1_556  A
C639        C640   1.406       .  A
C639        C642   1.450       .  S
C640        C643   1.452       .  S
C641        N648   1.157       .  T
C642        N647   1.157       .  T
C643        N645   1.157       .  T
C644        N646   1.157       .  T
C649        C650   1.417       .  A
C649        C654   1.416   1_556  A
C650        C651   1.412       .  A
C650        C655   1.451       .  S
C651        C652   1.410       .  A
C651        C658   1.450       .  S
C652        C653   1.409   1_556  A
C653        C654   1.408       .  A
C653        C656   1.450       .  S
C654        C657   1.452       .  S
C655        N662   1.158       .  T
C656        N661   1.157       .  T
C657        N659   1.157       .  T
C658        N660   1.157       .  T
C663        C664   1.410       .  A
C663        C668   1.409   1_556  A
C664        C665   1.412       .  A
C664        C669   1.450       .  S
C665        C666   1.417       .  A
C665        C672   1.452       .  S
C666        C667   1.415   1_556  A
C667        C668   1.408       .  A
C667        C670   1.452       .  S
C668        C671   1.450       .  S
C669        N676   1.157       .  T
C670        N675   1.157       .  T
C671        N673   1.157       .  T
C672        N674   1.158       .  T
