geometry optimzed in LAMMPS
_audit_creation_date              2020-12-01 
_audit_creation_method            'lammps2cif' 
_symmetry_space_group_name_H-M    'P1' 
_symmetry_Int_Tables_number       1 
_symmetry_cell_setting            triclinic 
loop_ 
_symmetry_equiv_pos_as_xyz 
  x,y,z 
_cell_length_a                    35.39462709 
_cell_length_b                    36.042763278664715 
_cell_length_c                    64.02455849212639 
_cell_angle_alpha                 91.17944636834898 
_cell_angle_beta                  89.8075261311128 
_cell_angle_gamma                 92.29127388330204 
loop_ 
_atom_site_label 
_atom_site_type_symbol 
_atom_site_fract_x 
_atom_site_fract_y 
_atom_site_fract_z 
_atom_site_charge 
C1          C  0.24850043  0.03882432  0.23615374     0.86600
C2          C  0.21409836  0.03154129  0.25087351    -0.53600
C3          C  0.21753218  0.50176491  0.26482344     0.09600
C4          C  0.25342841  0.47992002  0.26039497     0.20500
C5          C  0.28238466  0.04032735  0.25088589    -0.54300
C6          C  0.28630898  0.50913674  0.26370001     0.09700
C7          C  0.25059056  0.00209906  0.22378869    -0.54700
C8          C  0.25279898  0.47118315  0.23670134     0.10200
H9          H  0.18953325  0.04844844  0.25139984     0.14800
H10         H  0.25546305  0.45433407  0.26938278     0.00500
H11         H  0.30310427  0.06326548  0.25108474     0.15100
H12         H  0.24776269  0.49960553  0.20778219     0.14800
C13         C  0.46955963  0.25840869  0.01377651     0.02400
C14         C  0.46830335  0.25435411  0.99173144     0.02400
C15         C  0.00131810  0.24710774  0.97977750    -0.18100
C16         C  0.03627816  0.24807209  0.98978994     0.02400
C17         C  0.03790081  0.25513721  0.01148818     0.02400
C18         C  0.00443612  0.25585998  0.02293558    -0.18100
H19         H  0.00575720  0.25767748  0.03985743     0.04400
H20         H  0.00027801  0.24458983  0.96287390     0.04400
C21         C  0.24125509  0.45523881  0.76573151     0.86600
C22         C  0.20800105  0.46024046  0.75107683    -0.53600
C23         C  0.21399634  0.99131452  0.73871703     0.09600
C24         C  0.25019766  0.01532820  0.74390358     0.20500
C25         C  0.27672347  0.45835015  0.75186389    -0.54300
C26         C  0.28369873  0.98901441  0.74070500     0.09700
C27         C  0.24408695  0.49159051  0.77903267    -0.53900
C28         C  0.24884615  0.02207999  0.76778443     0.10200
H29         H  0.18458031  0.43995758  0.74950115     0.14800
H30         H  0.25216410  0.04104167  0.73477186     0.00500
H31         H  0.29764412  0.43739572  0.75121843     0.15100
H32         H  0.24513218  0.98989999  0.79552579     0.14800
C33         C  0.00712112  0.29067803  0.73724661     0.86600
C34         C  0.47366316  0.28710669  0.75100949    -0.53600
C35         C  0.47236583  0.25617753  0.76288741     0.09600
C36         C  0.00598221  0.23052998  0.75963812     0.20500
C37         C  0.04167045  0.28759662  0.75125422    -0.54300
C38         C  0.04245841  0.25580860  0.76240826     0.09700
C39         C  0.00346260  0.25416935  0.72453548    -0.53900
C40         C  0.00350066  0.22235983  0.73589919     0.10200
H41         H  0.45088169  0.30625971  0.75193307     0.14800
H42         H  0.00481272  0.20574326  0.76944733     0.00500
H43         H  0.06243286  0.31023578  0.75304221     0.15100
H44         H  0.00046899  0.25363340  0.70766534     0.14800
C45         C  0.24108991  0.46513796  0.01275439     0.02400
C46         C  0.24167689  0.46403915  0.99058226     0.02400
C47         C  0.24633606  0.99841363  0.98039220    -0.18100
C48         C  0.24452976  0.03270071  0.99122020     0.02400
C49         C  0.23902400  0.03281889  0.01317937     0.02400
C50         C  0.24042276  0.99898061  0.02369193    -0.18100
H51         H  0.24064078  0.99929784  0.04061571     0.04400
H52         H  0.24935911  0.99830647  0.96353170     0.04400
O53         O  0.35849171  0.25124117  0.91435039    -0.75100
O54         O  0.31148767  0.24780747  0.93882571    -0.54100
C55         C  0.34627439  0.25084366  0.93329790     0.78600
O56         O  0.24397105  0.34596724  0.84432184    -0.59700
O57         O  0.24875970  0.30074237  0.81916759    -0.52800
C58         C  0.24367485  0.33461288  0.82512553     0.70600
O59         O  0.25029516  0.34821514  0.91478879    -0.74300
O60         O  0.25277179  0.30311211  0.93913727    -0.54900
C61         C  0.25062346  0.33721907  0.93382641     0.76600
O62         O  0.36187364  0.25067055  0.84447867    -0.59400
O63         O  0.31632733  0.24711948  0.81933102    -0.52600
C64         C  0.35134329  0.25012467  0.82527747     0.73200
Zr65       Zr  0.33303311  0.24857030  0.87903501     2.54700
O66         O  0.37915284  0.30037224  0.88100944    -0.80000
O67         O  0.38274899  0.20376578  0.87912828    -0.93400
Zr68       Zr  0.25229522  0.32177711  0.87927270     2.64700
O69         O  0.29989711  0.37219847  0.87716707    -0.98400
O70         O  0.20172264  0.36532759  0.88286687    -0.80400
O71         O  0.29350108  0.28665458  0.89949328    -0.83800
O72         O  0.29366246  0.28558683  0.85867697    -2.18500
O73         O  0.24829406  0.13949260  0.84290497    -0.67200
O74         O  0.25385437  0.18444705  0.81827490    -0.51800
C75         C  0.24956227  0.15033768  0.82381103     0.71600
O76         O  0.14909840  0.23761271  0.91430077    -0.60100
O77         O  0.19597849  0.24304477  0.93870552    -0.52100
C78         C  0.16118451  0.24014884  0.93323568     0.73400
O79         O  0.14883956  0.24088371  0.84401913    -0.71500
O80         O  0.19480882  0.23912000  0.81914234    -0.50200
C81         C  0.15976972  0.23942550  0.82489086     0.74800
O82         O  0.25190015  0.14161808  0.91403588    -0.66800
O83         O  0.25051333  0.18825045  0.93868513    -0.54000
C84         C  0.25001100  0.15378500  0.93311669     0.73100
Zr85       Zr  0.25547089  0.16615765  0.87841561     2.77500
O86         O  0.21420736  0.11114200  0.88268633    -0.97600
O87         O  0.30980789  0.12710475  0.87536702    -0.78400
Zr88       Zr  0.17515686  0.23972660  0.87898996     2.70100
O89         O  0.12845515  0.18833625  0.87866913    -0.79600
O90         O  0.12737372  0.28638504  0.88196124    -0.98700
Zr91       Zr  0.25390176  0.24500402  0.91901620     2.21500
Zr92       Zr  0.25491008  0.24310910  0.83803951     2.11100
O93         O  0.21482072  0.20218677  0.85831149    -2.47400
O94         O  0.21463426  0.20279043  0.89889735    -0.79400
O95         O  0.29535939  0.20623441  0.85819941    -0.71600
O96         O  0.21307933  0.28167134  0.89938259    -2.32600
O97         O  0.29494294  0.20687821  0.89909802    -2.28800
O98         O  0.21373633  0.28037472  0.85858003    -0.73400
H99         H  0.30881440  0.30178709  0.84986651     0.78600
H100        H  0.19715048  0.29606965  0.90842986     0.79700
H101        H  0.19889875  0.18628424  0.84943297     0.81900
H102        H  0.31045062  0.19265634  0.90809882     0.79500
H103        H  0.17910935  0.34996141  0.88678843     0.42600
H104        H  0.13049792  0.30134576  0.86923085     0.41500
H105        H  0.14253080  0.16661132  0.87378364     0.41200
H106        H  0.18968030  0.11771072  0.87671564     0.39100
H107        H  0.32204918  0.12905727  0.88924449     0.42300
H108        H  0.37668839  0.18767595  0.89113288     0.37100
H109        H  0.36579781  0.32166270  0.87547230     0.43200
H110        H  0.28565614  0.39495421  0.87974506     0.39600
H111        H  0.22421702  0.09219548  0.87296465     0.44500
H112        H  0.40572350  0.21845029  0.88350700     0.43200
H113        H  0.31546236  0.36989843  0.88985966     0.43400
H114        H  0.10294497  0.27242898  0.88004903     0.43700
O115        O  0.24962598  0.35689034  0.16210817    -0.75100
O116        O  0.24438111  0.31083440  0.18608119    -0.54100
C117        C  0.24673758  0.34511745  0.18099431     0.78600
O118        O  0.14737428  0.25612581  0.08657455    -0.59700
O119        O  0.19624303  0.25299243  0.06329952    -0.52800
C120        C  0.16117327  0.25471770  0.06798408     0.70600
O121        O  0.13667667  0.25901557  0.15601538    -0.74300
O122        O  0.18043187  0.25589394  0.18166883    -0.54900
C123        C  0.14587603  0.25802822  0.17532709     0.76600
O124        O  0.25366545  0.35862781  0.09125194    -0.59400
O125        O  0.25425410  0.31234929  0.06625370    -0.52600
C126        C  0.25413133  0.34683432  0.07209643     0.73200
Zr127      Zr  0.25283787  0.33170951  0.12612673     2.54700
O128        O  0.20888158  0.38194832  0.12685360    -0.80000
O129        O  0.30795635  0.37435443  0.12665011    -0.93400
Zr130      Zr  0.16886817  0.25530160  0.12260178     2.64700
O131        O  0.12143803  0.30215254  0.12033787    -0.98400
O132        O  0.12179306  0.20420602  0.12046990    -0.80400
O133        O  0.20802707  0.29419710  0.14461417    -0.83800
O134        O  0.21242046  0.29397308  0.10421719    -2.18500
O135        O  0.35612157  0.25071840  0.09200472    -0.67200
O136        O  0.31145091  0.25142197  0.06640354    -0.51800
C137        C  0.34578225  0.25022044  0.07270174     0.71600
O138        O  0.24049390  0.15151870  0.15952683    -0.60100
O139        O  0.23896797  0.19705082  0.18473781    -0.52100
C140        C  0.23940762  0.16286753  0.17874634     0.73400
O141        O  0.23805943  0.14926886  0.08870814    -0.71500
O142        O  0.24792680  0.19467894  0.06472077    -0.50200
C143        C  0.24197687  0.16048645  0.06980821     0.74800
O144        O  0.34954838  0.24705065  0.16204161    -0.66800
O145        O  0.30173425  0.25043195  0.18600794    -0.54000
C146        C  0.33679911  0.24690197  0.18086629     0.73100
Zr147      Zr  0.32626374  0.25187461  0.12663113     2.77500
O148        O  0.37165379  0.20300460  0.12795059    -0.97600
O149        O  0.37521625  0.30119359  0.12872348    -0.78400
Zr150      Zr  0.24195127  0.17576221  0.12415358     2.70100
O151        O  0.28948073  0.12873078  0.12312172    -0.79600
O152        O  0.19030935  0.12895787  0.12436997    -0.98700
Zr153      Zr  0.24339552  0.25395425  0.16541974     2.21500
Zr154      Zr  0.25169935  0.25341416  0.08466172     2.11100
O155        O  0.28681382  0.21260473  0.10519723    -2.47400
O156        O  0.28252916  0.21380253  0.14562015    -0.79400
O157        O  0.29219175  0.29261887  0.10592881    -0.71600
O158        O  0.20269250  0.21513228  0.14393115    -2.32600
O159        O  0.28842058  0.29218849  0.14693059    -2.28800
O160        O  0.20693538  0.21496734  0.10293834    -0.73400
H161        H  0.19852332  0.30948323  0.09510189     0.78600
H162        H  0.18539187  0.20044422  0.15239593     0.79700
H163        H  0.30186043  0.19671885  0.09647788     0.81900
H164        H  0.30420624  0.30677755  0.15654672     0.79500
H165        H  0.13158945  0.18473918  0.12943182     0.42600
H166        H  0.20287718  0.10504135  0.12556496     0.41500
H167        H  0.27660578  0.10633949  0.12895665     0.41200
H168        H  0.35870486  0.18100441  0.12128141     0.39100
H169        H  0.39648042  0.28998638  0.13598753     0.42300
H170        H  0.32594795  0.36319085  0.13626305     0.37100
H171        H  0.18356822  0.36921742  0.12684052     0.43200
H172        H  0.12958626  0.31785219  0.10850726     0.39600
H173        H  0.39221477  0.21037772  0.11818799     0.44500
H174        H  0.29944386  0.39670432  0.13427270     0.43200
H175        H  0.09840580  0.28835111  0.11524701     0.43400
H176        H  0.17746483  0.13245152  0.13798833     0.43700
O177        O  0.10328540  0.50253356  0.65735893    -0.75100
O178        O  0.05865646  0.50575089  0.68306223    -0.54100
C179        C  0.09597142  0.00318819  0.67609788     0.78600
O180        O  0.49569990  0.10352923  0.58778508    -0.59700
O181        O  0.49662962  0.05659264  0.56336197    -0.52800
C182        C  0.49583541  0.09111923  0.56874454     0.70600
O183        O  0.49615939  0.10796252  0.65874434    -0.74300
O184        O  0.49910091  0.06372949  0.68366065    -0.54900
C185        C  0.49679443  0.09753016  0.67787549     0.76600
O186        O  0.09938792  0.00504287  0.58654420    -0.59400
O187        O  0.05135945  0.99977204  0.56286889    -0.52600
C188        C  0.08635461  0.00298955  0.56776980     0.73200
Zr189      Zr  0.07433522  0.50323767  0.62280284     2.54700
O190        O  0.12958928  0.04686832  0.62228188    -0.80000
O191        O  0.11652990  0.45253997  0.61629565    -0.93400
Zr192      Zr  0.49791318  0.08044686  0.62349128     2.64700
O193        O  0.05602055  0.12196834  0.62358393    -0.98400
O194        O  0.44770252  0.12448891  0.62212699    -0.80400
O195        O  0.04028295  0.04320485  0.64357186    -0.83800
O196        O  0.03763244  0.04063448  0.60268990    -2.18500
O197        O  0.49740177  0.39837889  0.59166447    -0.67200
O198        O  0.49616211  0.44215376  0.56640824    -0.51800
C199        C  0.49786397  0.40838084  0.57250743     0.71600
O200        O  0.39132130  0.50360847  0.66046994    -0.60100
O201        O  0.43779763  0.50780100  0.68500926    -0.52100
C202        C  0.40252479  0.50629067  0.67948977     0.73400
O203        O  0.39201266  0.00247754  0.58916929    -0.71500
O204        O  0.43811399  0.99882622  0.56424404    -0.50200
C205        C  0.40245178  0.50284980  0.57162916     0.74800
O206        O  0.49792520  0.40472190  0.66134383    -0.66800
O207        O  0.49992014  0.45136900  0.68591125    -0.54000
C208        C  0.49997189  0.41688956  0.68034752     0.73100
Zr209      Zr  0.49457496  0.42784809  0.62605008     2.77500
O210        O  0.44107674  0.38327627  0.62667674    -0.97600
O211        O  0.03724168  0.37382167  0.62691237    -0.78400
Zr212      Zr  0.41819876  0.50474048  0.62566761     2.70100
O213        O  0.36389886  0.46111402  0.62543855    -0.79600
O214        O  0.37190016  0.04784519  0.62645188    -0.98700
Zr215      Zr  0.49855831  0.50761836  0.66577056     2.21500
Zr216      Zr  0.49625619  0.00034581  0.58365621     2.11100
O217        O  0.45467069  0.46355126  0.60547809    -2.47400
O218        O  0.45615395  0.46687213  0.64644510    -0.79400
O219        O  0.03372489  0.46082673  0.60412231    -0.71600
O220        O  0.45853953  0.04150264  0.64432733    -2.32600
O221        O  0.03552888  0.46465241  0.64435789    -2.28800
O222        O  0.45711657  0.03983562  0.60361291    -0.73400
H223        H  0.05286466  0.05577601  0.59336133     0.78600
H224        H  0.44299926  0.05658678  0.65323707     0.79700
H225        H  0.43848381  0.44743131  0.59685036     0.81900
H226        H  0.05135185  0.45018114  0.65303652     0.79500
H227        H  0.46035394  0.14777166  0.61728180     0.42600
H228        H  0.38407487  0.06957948  0.61957210     0.41500
H229        H  0.34223601  0.47617299  0.62167608     0.41200
H230        H  0.45237213  0.35893193  0.62399665     0.39100
H231        H  0.02096564  0.35082185  0.62677686     0.42300
H232        H  0.11522575  0.43753103  0.62904039     0.37100
H233        H  0.11963322  0.06916295  0.61578076     0.43200
H234        H  0.04634325  0.14635452  0.61985998     0.39600
H235        H  0.43305015  0.38259736  0.64149814     0.44500
H236        H  0.14227691  0.46430617  0.61623839     0.43200
H237        H  0.06325314  0.12494241  0.63846992     0.43400
H238        H  0.35122694  0.03915246  0.61696434     0.43700
O239        O  0.50055013  0.09408546  0.34199779    -0.75100
O240        O  0.49845081  0.04610199  0.31813429    -0.54100
C241        C  0.49986437  0.08077279  0.32315176     0.78600
O242        O  0.10126573  0.49107978  0.41414180    -0.59700
O243        O  0.05424865  0.49459288  0.43859646    -0.52800
C244        C  0.09007938  0.99628450  0.43239256     0.70600
O245        O  0.10268546  0.48851991  0.34318760    -0.74300
O246        O  0.05680887  0.48238317  0.31854547    -0.54900
C247        C  0.09093193  0.98792514  0.32329268     0.76600
O248        O  0.50042574  0.10113000  0.41255877    -0.59400
O249        O  0.49809601  0.05689582  0.43763075    -0.52600
C250        C  0.99663609  0.08601461  0.43126254     0.73200
Zr251      Zr  0.49867563  0.07187440  0.37782843     2.54700
O252        O  0.04409714  0.11696792  0.37675270    -0.80000
O253        O  0.44873150  0.11645798  0.37844189    -0.93400
Zr254      Zr  0.07630518  0.49104232  0.37860745     2.64700
O255        O  0.12444949  0.04299815  0.37682226    -0.98400
O256        O  0.12407313  0.44431986  0.37915712    -0.80400
O257        O  0.03721515  0.02826732  0.35745265    -0.83800
O258        O  0.03762071  0.03155314  0.39808141    -2.18500
O259        O  0.39313941  0.48947767  0.41342950    -0.67200
O260        O  0.43748079  0.99556740  0.43843396    -0.51800
C261        C  0.40528243  0.48986849  0.43236364     0.71600
O262        O  0.49103146  0.38408706  0.34469218    -0.60100
O263        O  0.49277924  0.42794364  0.31948135    -0.52100
C264        C  0.48994293  0.39406901  0.32552179     0.73400
O265        O  0.50043703  0.39029070  0.41505307    -0.71500
O266        O  0.50059356  0.43833140  0.43890617    -0.50200
C267        C  0.50079727  0.40355838  0.43391250     0.74800
O268        O  0.39271059  0.48777960  0.34310438    -0.66800
O269        O  0.43928593  0.48717918  0.31829539    -0.54000
C270        C  0.40445891  0.48772540  0.32407416     0.73100
Zr271      Zr  0.41916153  0.48798875  0.37820158     2.77500
O272        O  0.37308278  0.43596266  0.37772364    -0.97600
O273        O  0.37256922  0.04401841  0.37938255    -0.78400
Zr274      Zr  0.49817335  0.41313087  0.37926914     2.70100
O275        O  0.45018739  0.36346214  0.38293757    -0.79600
O276        O  0.04619729  0.36659289  0.37892616    -0.98700
Zr277      Zr  0.49818838  0.48773484  0.33763453     2.21500
Zr278      Zr  0.49853346  0.49416999  0.41821352     2.11100
O279        O  0.45816379  0.45159591  0.39895872    -2.47400
O280        O  0.45810268  0.44845235  0.35839460    -0.79400
O281        O  0.45707881  0.03509339  0.39883125    -0.71600
O282        O  0.03719039  0.44855434  0.35887312    -2.32600
O283        O  0.45752351  0.03169789  0.35795695    -2.28800
O284        O  0.03647801  0.45264807  0.39961613    -0.73400
H285        H  0.05309440  0.04816862  0.40677393     0.78600
H286        H  0.05238170  0.43275335  0.35017282     0.79700
H287        H  0.44287390  0.43635620  0.40819195     0.81900
H288        H  0.44269452  0.04635319  0.34883559     0.79500
H289        H  0.14849101  0.45863949  0.37848853     0.42600
H290        H  0.05445877  0.36537375  0.36414867     0.41500
H291        H  0.42596308  0.37551274  0.38058447     0.41200
H292        H  0.34833568  0.44748329  0.37622083     0.39100
H293        H  0.34932981  0.03315143  0.37274304     0.42300
H294        H  0.43005512  0.10673618  0.36802180     0.37100
H295        H  0.06764746  0.10511865  0.37230761     0.43200
H296        H  0.12623865  0.05299173  0.39131922     0.39600
H297        H  0.37717181  0.42298580  0.36417007     0.44500
H298        H  0.46032866  0.13897546  0.37205408     0.43200
H299        H  0.14863368  0.03067393  0.37441988     0.43400
H300        H  0.06763181  0.37938837  0.38636231     0.43700
C301        C  0.99233696  0.27899810  0.51330658     0.02400
C302        C  0.99475886  0.27955814  0.49124263     0.02400
C303        C  0.99310656  0.24577926  0.47985702    -0.18100
C304        C  0.98954563  0.21121157  0.48969980     0.02400
C305        C  0.98753876  0.21073658  0.51187432     0.02400
C306        C  0.99036620  0.24462946  0.52319800    -0.18100
H307        H  0.99002094  0.24429711  0.54013499     0.04400
H308        H  0.99454118  0.24645132  0.46294000     0.04400
C309        C  0.28131757  0.49511778  0.51244256     0.02400
C310        C  0.28216005  0.49776785  0.49047116     0.02400
C311        C  0.24804144  0.49892629  0.47959444    -0.18100
C312        C  0.21334148  0.49742229  0.49003020     0.02400
C313        C  0.21259336  0.49848928  0.51205038     0.02400
C314        C  0.24650492  0.49532589  0.52290954    -0.18100
H315        H  0.24592214  0.49378850  0.53981005     0.04400
H316        H  0.24847499  0.50011728  0.46267385     0.04400
C317        C  0.99796985  0.20019397  0.26530693     0.86600
C318        C  0.46257659  0.20415398  0.25052013    -0.53600
C319        C  0.46035388  0.23603992  0.23947096     0.09600
C320        C  0.99370093  0.26161669  0.24403935     0.20500
C321        C  0.03107742  0.20744243  0.25023667    -0.54300
C322        C  0.02982549  0.23976657  0.23953969     0.09700
C323        C  0.99515970  0.23571557  0.27868492    -0.53900
C324        C  0.99362193  0.26815128  0.26793107     0.10200
H325        H  0.43974447  0.18339696  0.24946708     0.14800
H326        H  0.99160956  0.28670343  0.23462013     0.00500
H327        H  0.05314009  0.18787867  0.24752182     0.15100
H328        H  0.99259092  0.23491670  0.29557058     0.14800
C329        C  0.00795609  0.36603264  0.29177016    -0.05600
C330        C  0.48637645  0.36434438  0.30915943     0.00300
C331        C  0.46268145  0.33203831  0.31138982    -0.08300
C332        C  0.46416761  0.30384678  0.29604880    -0.05700
C333        C  0.48869093  0.30613359  0.27870995     0.00300
C334        C  0.00957878  0.33757540  0.27639427    -0.08200
C335        C  0.03485247  0.34396680  0.25748366     0.62200
H336        H  0.02553113  0.39108866  0.29025775     0.12900
H337        H  0.44717220  0.27854552  0.29811986     0.12900
C338        C  0.43672358  0.32615287  0.33008904     0.62400
F339        F  0.05752531  0.37600492  0.25969071    -0.22700
F340        F  0.50679193  0.35117745  0.23887928    -0.20100
F341        F  0.05845313  0.31489803  0.25459588    -0.19700
F342        F  0.41719089  0.35787469  0.33444781    -0.19800
F343        F  0.45793702  0.31733130  0.34723777    -0.20100
F344        F  0.41026679  0.29736896  0.32651543    -0.22800
C345        C  0.02730330  0.13273034  0.30875152    -0.05600
C346        C  0.50159014  0.10785672  0.30618402     0.00300
C347        C  0.47529870  0.10745135  0.28967217    -0.08300
C348        C  0.47678640  0.13698432  0.27566795    -0.05700
C349        C  0.00214546  0.16512787  0.27882784     0.00300
C350        C  0.03031214  0.16249581  0.29490148    -0.08200
C351        C  0.06545781  0.18826165  0.29724665     0.62200
H352        H  0.04711945  0.13096840  0.32151226     0.12900
H353        H  0.45696940  0.13561496  0.26303258     0.12900
C354        C  0.44450067  0.07704269  0.28749239     0.62400
F355        F  0.08867899  0.17797339  0.31333207    -0.22700
F356        F  0.05660253  0.22449975  0.30147965    -0.20100
F357        F  0.08666040  0.18612576  0.27930925    -0.19700
F358        F  0.42430142  0.07479584  0.30594690    -0.19800
F359        F  0.46045229  0.04336009  0.28308282    -0.20100
F360        F  0.41934702  0.08378534  0.27162523    -0.22800
C361        C  0.46911367  0.12268899  0.46112433    -0.05600
C362        C  0.99730142  0.11622839  0.44733500     0.00300
C363        C  0.02617840  0.14478341  0.44838627    -0.08300
C364        C  0.02285903  0.17373987  0.46322265    -0.05700
C365        C  0.99079828  0.17700580  0.47602512     0.00300
C366        C  0.46353817  0.15349147  0.47453242    -0.08200
C367        C  0.42505997  0.15560348  0.48476444     0.62200
H368        H  0.44688945  0.10118393  0.45965270     0.12900
H369        H  0.04533778  0.19505087  0.46435731     0.12900
C370        C  0.06073466  0.14726913  0.43422550     0.62400
F371        F  0.39719875  0.14712573  0.47012939    -0.22700
F372        F  0.41827966  0.19045732  0.49277147    -0.20100
F373        F  0.42223583  0.13010593  0.50057440    -0.19700
F374        F  0.05896989  0.17863253  0.42224050    -0.19800
F375        F  0.06403590  0.11706953  0.42090591    -0.20100
F376        F  0.09307777  0.15043583  0.44630092    -0.22800
C377        C  0.02945087  0.36329413  0.45974968    -0.05600
C378        C  0.49956958  0.37630396  0.45094461     0.00300
C379        C  0.46483802  0.35949798  0.45739929    -0.08300
C380        C  0.46501430  0.33044872  0.47161167    -0.05700
C381        C  0.99625949  0.31438062  0.47915950     0.00300
C382        C  0.03067353  0.33297028  0.47332384    -0.08200
C383        C  0.06855515  0.31907652  0.48000899     0.62200
H384        H  0.05536294  0.37752566  0.45476245     0.12900
H385        H  0.43883734  0.31557709  0.47533709     0.12900
C386        C  0.42764005  0.37196122  0.44903479     0.62400
F387        F  0.07084293  0.31912966  0.50150687    -0.22700
F388        F  0.09841391  0.34107956  0.47256617    -0.20100
F389        F  0.07253689  0.28330264  0.47232505    -0.19700
F390        F  0.42633630  0.36608988  0.42764642    -0.19800
F391        F  0.42442059  0.40931874  0.45367598    -0.20100
F392        F  0.39706453  0.35278215  0.45781028    -0.22800
C393        C  0.13817219  0.46171694  0.45193024    -0.05600
C394        C  0.11743153  0.49357863  0.44967479     0.00300
C395        C  0.12557049  0.02888019  0.46189077    -0.08300
C396        C  0.15541870  0.02852874  0.47614329    -0.05700
C397        C  0.17875095  0.49428788  0.47726934     0.00300
C398        C  0.16907218  0.46145641  0.46554161    -0.08200
C399        C  0.19191465  0.42671049  0.46673184     0.62200
H400        H  0.13078758  0.43744499  0.44229795     0.12900
H401        H  0.16267757  0.05292947  0.48569109     0.12900
C402        C  0.10443453  0.06406292  0.45915743     0.62400
F403        F  0.17368838  0.39650802  0.45688573    -0.22700
F404        F  0.19770028  0.41768923  0.48732604    -0.20100
F405        F  0.22343488  0.93467662  0.45233404    -0.19700
F406        F  0.06785328  0.55533487  0.46535160    -0.19800
F407        F  0.11090575  0.07629981  0.43913056    -0.20100
F408        F  0.11639918  0.09196113  0.47308980    -0.22800
C409        C  0.37241402  0.02422471  0.46269440    -0.05600
C410        C  0.37673959  0.48842723  0.44899627     0.00300
C411        C  0.34753330  0.46040513  0.44965030    -0.08300
C412        C  0.31893603  0.46390458  0.46456913    -0.05700
C413        C  0.31705474  0.49517959  0.47786049     0.00300
C414        C  0.34177649  0.02897849  0.47629968    -0.08200
C415        C  0.33749573  0.06731416  0.48611467     0.62200
H416        H  0.39324145  0.04686078  0.46090839     0.12900
H417        H  0.29666816  0.44244317  0.46529009     0.12900
C418        C  0.34392744  0.42692448  0.43484397     0.62400
F419        F  0.34007430  0.09354026  0.47066232    -0.22700
F420        F  0.36623794  0.07442340  0.50035625    -0.20100
F421        F  0.30324366  0.07158192  0.49608067    -0.19700
F422        F  0.33745691  0.39510523  0.44624459    -0.19800
F423        F  0.37559232  0.42180720  0.42270552    -0.20100
F424        F  0.31346614  0.43109007  0.42175271    -0.22800
C425        C  0.14917826  0.47398447  0.52299093    -0.05600
C426        C  0.17725172  0.50249081  0.52425872     0.00300
C427        C  0.17125208  0.03767534  0.53807110    -0.08300
C428        C  0.14111393  0.03502731  0.55212729    -0.05700
C429        C  0.11409683  0.00565953  0.55081677     0.00300
C430        C  0.11671837  0.47445899  0.53568527    -0.08200
C431        C  0.08595699  0.44431760  0.53287676     0.62200
H432        H  0.15313480  0.45104069  0.51217517     0.12900
H433        H  0.13851164  0.05625534  0.56425553     0.12900
C434        C  0.19736727  0.07210695  0.53962111     0.62400
F435        F  0.09526876  0.41811645  0.51778674    -0.22700
F436        F  0.05226200  0.96366707  0.52551242    -0.20100
F437        F  0.08000848  0.42637871  0.55146179    -0.19700
F438        F  0.22078299  0.07621804  0.52242537    -0.19800
F439        F  0.23325641  0.56047533  0.54529827    -0.20100
F440        F  0.17599894  0.10339310  0.54108751    -0.22800
C441        C  0.36826301  0.46990899  0.54309905    -0.05600
C442        C  0.37388734  0.50250851  0.55515750     0.00300
C443        C  0.35533809  0.03477394  0.54994697    -0.08300
C444        C  0.32463556  0.03256601  0.53625337    -0.05700
C445        C  0.31571558  0.49665131  0.52542363     0.00300
C446        C  0.33858589  0.46585854  0.52864362    -0.08200
C447        C  0.33225820  0.42784751  0.51833852     0.62200
H448        H  0.38591779  0.44658995  0.54588739     0.12900
H449        H  0.30801583  0.05673758  0.53400977     0.12900
C450        C  0.36763020  0.07183511  0.55985595     0.62400
F451        F  0.36205046  0.42119752  0.50493281    -0.22700
F452        F  0.29892686  0.42419131  0.50722028    -0.20100
F453        F  0.32371338  0.90266516  0.53358593    -0.19700
F454        F  0.39605425  0.58007278  0.56420277    -0.19800
F455        F  0.36290006  0.07074484  0.58122042    -0.20100
F456        F  0.34699388  0.10063130  0.55246680    -0.22800
C457        C  0.01312978  0.15033008  0.52187823    -0.05600
C458        C  0.98443588  0.17605427  0.52415961     0.00300
C459        C  0.45933086  0.17327027  0.54071602    -0.08300
C460        C  0.46399747  0.14427759  0.55458386    -0.05700
C461        C  0.99046834  0.11737074  0.55251950     0.00300
C462        C  0.01642416  0.12068187  0.53572184    -0.08200
C463        C  0.04879121  0.09450936  0.53326903     0.62200
H464        H  0.03410697  0.15466717  0.50974184     0.12900
H465        H  0.44426582  0.14094869  0.56748417     0.12900
C466        C  0.42465257  0.19615528  0.54440073     0.62400
F467        F  0.07353864  0.10537793  0.51755560    -0.22700
F468        F  0.03467616  0.05909103  0.52836134    -0.20100
F469        F  0.06899951  0.09382682  0.55170982    -0.19700
F470        F  0.39291299  0.17251751  0.54524930    -0.19800
F471        F  0.41854624  0.22147060  0.52903687    -0.20100
F472        F  0.42834714  0.21514007  0.56331795    -0.22800
C473        C  0.02458920  0.31916037  0.53987595    -0.05600
C474        C  0.99297692  0.31308625  0.52692435     0.00300
C475        C  0.46383039  0.34139822  0.53002484    -0.08300
C476        C  0.46834024  0.37307242  0.54315795    -0.05700
C477        C  0.49954009  0.37835818  0.55648968     0.00300
C478        C  0.02715283  0.34833441  0.55474694    -0.08200
C479        C  0.06196828  0.34947851  0.56864739     0.62200
H480        H  0.04729119  0.29984277  0.53883885     0.12900
H481        H  0.44548574  0.39220030  0.54442189     0.12900
C482        C  0.42485938  0.33410859  0.52063780     0.62400
F483        F  0.06148857  0.31771577  0.58043191    -0.22700
F484        F  0.06460949  0.37985223  0.58210958    -0.20100
F485        F  0.09407872  0.35010949  0.55624720    -0.19700
F486        F  0.39805715  0.33501149  0.53641918    -0.19800
F487        F  0.42068406  0.29990308  0.51064380    -0.20100
F488        F  0.41754770  0.36165723  0.50666897    -0.22800
C489        C  0.12546028  0.25375008  0.21235942    -0.05600
C490        C  0.11476110  0.25821092  0.19150000     0.00300
C491        C  0.07530228  0.26174619  0.18717209    -0.08300
C492        C  0.04883466  0.25757461  0.20366196    -0.05700
C493        C  0.05994269  0.25089981  0.22416330     0.00300
C494        C  0.09923320  0.25134723  0.22875683    -0.08200
C495        C  0.11592301  0.24976272  0.25045980     0.62200
H496        H  0.15513150  0.25204398  0.21618595     0.12900
H497        H  0.01880970  0.25781863  0.20049231     0.12900
C498        C  0.06022040  0.26941058  0.16552230     0.62400
F499        F  0.13292826  0.21619087  0.25252829    -0.22700
F500        F  0.08954574  0.25407866  0.26610540    -0.20100
F501        F  0.14327455  0.27800988  0.25307229    -0.19700
F502        F  0.06676117  0.23979687  0.15210104    -0.19800
F503        F  0.07754422  0.30153894  0.15802862    -0.20100
F504        F  0.02161612  0.27445559  0.16568754    -0.22800
C505        C  0.42391400  0.21468999  0.20847479    -0.05600
C506        C  0.42843841  0.24108681  0.22470626     0.00300
C507        C  0.40028485  0.26770359  0.22781440    -0.08300
C508        C  0.36954323  0.26799053  0.21373523    -0.05700
C509        C  0.36547198  0.24165347  0.19733915     0.00300
C510        C  0.39219984  0.21341297  0.19536221    -0.08200
C511        C  0.38829259  0.18090703  0.17995481     0.62200
H512        H  0.44491387  0.19376365  0.20652867     0.12900
H513        H  0.34890878  0.28930395  0.21514504     0.12900
C514        C  0.40205928  0.29495975  0.24613439     0.62400
F515        F  0.39767790  0.14852426  0.18960876    -0.22700
F516        F  0.41280755  0.18697206  0.16342235    -0.20100
F517        F  0.35183472  0.17540525  0.17248257    -0.19700
F518        F  0.43305175  0.31906988  0.24407136    -0.19800
F519        F  0.40473983  0.27578311  0.26450032    -0.20100
F520        F  0.37015781  0.31589984  0.24742161    -0.22800
C521        C  0.20773037  0.10662556  0.05277074    -0.05600
C522        C  0.23946738  0.13128144  0.05299377     0.00300
C523        C  0.26953591  0.12492780  0.03885333    -0.08300
C524        C  0.26749067  0.09328548  0.02558564    -0.05700
C525        C  0.23648154  0.06787120  0.02590000     0.00300
C526        C  0.20537716  0.07513839  0.03930877    -0.08200
C527        C  0.16980029  0.05001160  0.03962481     0.62200
H528        H  0.18507803  0.11171384  0.06374781     0.12900
H529        H  0.29100437  0.08723582  0.01539376     0.12900
C530        C  0.30495207  0.14980260  0.03888531     0.62400
F531        F  0.14080800  0.06631211  0.05060465    -0.22700
F532        F  0.17695818  0.01699189  0.04913654    -0.20100
F533        F  0.15728653  0.04267715  0.01946571    -0.19700
F534        F  0.31985025  0.15140804  0.05875843    -0.19800
F535        F  0.29642657  0.18507239  0.03281263    -0.20100
F536        F  0.33225545  0.13662378  0.02543316    -0.22800
C537        C  0.21769936  0.37934311  0.04557532    -0.05600
C538        C  0.25240135  0.37513423  0.05562722     0.00300
C539        C  0.28374075  0.39881818  0.05043753    -0.08300
C540        C  0.27902414  0.42651191  0.03555487    -0.05700
C541        C  0.24409837  0.43145855  0.02583193     0.00300
C542        C  0.21282983  0.40730943  0.03078863    -0.08200
C543        C  0.17442676  0.41106874  0.02080437     0.62200
H544        H  0.19413107  0.36081763  0.04973892     0.12900
H545        H  0.30248722  0.44540575  0.03173374     0.12900
C546        C  0.32184779  0.39515988  0.06077042     0.62400
F547        F  0.17631098  0.40122698  0.99994694    -0.22700
F548        F  0.16304596  0.44721399  0.02288238    -0.20100
F549        F  0.14709997  0.38804653  0.02984843    -0.19700
F550        F  0.33370200  0.35935828  0.05797229    -0.19800
F551        F  0.31890163  0.40309551  0.08190532    -0.20100
F552        F  0.34918719  0.41918980  0.05245430    -0.22800
C553        C  0.21660792  0.08915476  0.97666992    -0.05600
C554        C  0.24844092  0.06746952  0.97888666     0.00300
C555        C  0.28177206  0.07694079  0.96737363    -0.08300
C556        C  0.28078049  0.10516884  0.95260251    -0.05700
C557        C  0.24865889  0.12582538  0.94980925     0.00300
C558        C  0.21630935  0.11864127  0.96245171    -0.08200
C559        C  0.18124086  0.14102685  0.96027109     0.62200
H560        H  0.19150046  0.08193842  0.98565195     0.12900
H561        H  0.30569308  0.11144387  0.94319609     0.12900
C562        C  0.31913620  0.05833828  0.96984494     0.62400
F563        F  0.15223846  0.12846755  0.97320947    -0.22700
F564        F  0.16855576  0.13850448  0.93986169    -0.20100
F565        F  0.18973101  0.17778804  0.96551904    -0.19700
F566        F  0.32601277  0.03708709  0.95211684    -0.19800
F567        F  0.32003223  0.03600950  0.98710008    -0.20100
F568        F  0.34794422  0.08526723  0.97208202    -0.22800
C569        C  0.26824323  0.40283710  0.98086894    -0.05600
C570        C  0.24034253  0.42879658  0.97785347     0.00300
C571        C  0.21361783  0.42221776  0.96153541    -0.08300
C572        C  0.21835768  0.39213949  0.94759852    -0.05700
C573        C  0.24657588  0.36642385  0.95040712     0.00300
C574        C  0.27075979  0.37077243  0.96799823    -0.08200
C575        C  0.29976739  0.34251210  0.97294526     0.62200
H576        H  0.28867675  0.40826883  0.99317252     0.12900
H577        H  0.19923027  0.38825185  0.93446668     0.12900
C578        C  0.17960742  0.44598497  0.95835400     0.62400
F579        F  0.32252554  0.35415773  0.98953939    -0.22700
F580        F  0.32262817  0.33691899  0.95581360    -0.20100
F581        F  0.28166105  0.30927723  0.97817250    -0.19700
F582        F  0.18747093  0.47106266  0.94273126    -0.19800
F583        F  0.16970696  0.46515067  0.97636559    -0.20100
F584        F  0.14849564  0.42374950  0.95247245    -0.22800
C585        C  0.47001714  0.18289904  0.70937712    -0.05600
C586        C  0.49884352  0.18541166  0.72441483     0.00300
C587        C  0.02069085  0.15431267  0.72740065    -0.08300
C588        C  0.01970991  0.12619848  0.71167103    -0.05700
C589        C  0.49498308  0.12666501  0.69444048     0.00300
C590        C  0.46759037  0.15420008  0.69433141    -0.08200
C591        C  0.43630914  0.15418362  0.67819012     0.62200
H592        H  0.45049768  0.20521060  0.70867017     0.12900
H593        H  0.03862223  0.10337867  0.71243965     0.12900
C594        C  0.04563160  0.14971384  0.74630737     0.62400
F595        F  0.40864776  0.17872900  0.68366681    -0.22700
F596        F  0.41915230  0.11914123  0.67624958    -0.20100
F597        F  0.45128993  0.16479424  0.65919427    -0.19700
F598        F  0.02331580  0.14554544  0.76389942    -0.19800
F599        F  0.07028291  0.17994628  0.74890352    -0.20100
F600        F  0.06692023  0.11846368  0.74442836    -0.22800
C601        C  0.48954477  0.35692320  0.72864598    -0.05600
C602        C  0.51080957  0.32592690  0.72266169     0.00300
C603        C  0.53357711  0.32943153  0.70414173    -0.08300
C604        C  0.52889843  0.35988395  0.69127704    -0.05700
C605        C  0.50464353  0.38833220  0.69635658     0.00300
C606        C  0.48532308  0.38756366  0.71565408    -0.08200
C607        C  0.45896143  0.41792087  0.72209781     0.62200
H608        H  0.47631406  0.35778498  0.74379455     0.12900
H609        H  0.54495945  0.36162545  0.67682326     0.12900
C610        C  0.06187359  0.30099547  0.69746766     0.62400
F611        F  0.43977195  0.40976336  0.74040613    -0.22700
F612        F  0.43246343  0.42202841  0.70656906    -0.20100
F613        F  0.97786276  0.45069632  0.72417877    -0.19700
F614        F  0.55221659  0.28728008  0.67750612    -0.19800
F615        F  0.07175678  0.27600191  0.71209913    -0.20100
F616        F  0.09475812  0.32056198  0.69196954    -0.22800
C617        C  0.06409086  0.23428185  0.79668652    -0.05600
C618        C  0.07406048  0.24830613  0.77711313     0.00300
C619        C  0.11328030  0.25447346  0.77236165    -0.08300
C620        C  0.14000940  0.25121611  0.78840207    -0.05700
C621        C  0.12974388  0.23925878  0.80842783     0.00300
C622        C  0.09118618  0.22817393  0.81214249    -0.08200
C623        C  0.07797438  0.20946136  0.83206339     0.62200
H624        H  0.03443762  0.22882209  0.80009648     0.12900
H625        H  0.16945813  0.25844804  0.78531405     0.12900
C626        C  0.12811504  0.26167782  0.75040947     0.62400
F627        F  0.04202716  0.19322770  0.82998668    -0.22700
F628        F  0.07698979  0.23537282  0.84823279    -0.20100
F629        F  0.10203444  0.18161156  0.83694405    -0.19700
F630        F  0.12353486  0.29808970  0.74502227    -0.19800
F631        F  0.10966545  0.23798842  0.73628421    -0.20100
F632        F  0.16631607  0.25514495  0.74875283    -0.22800
C633        C  0.44409297  0.27531055  0.79645651    -0.05600
C634        C  0.44206944  0.25112775  0.77910068     0.00300
C635        C  0.40907000  0.22792893  0.77623012    -0.08300
C636        C  0.37989341  0.22871910  0.79143767    -0.05700
C637        C  0.38227433  0.25247044  0.80914460     0.00300
C638        C  0.41482238  0.27691608  0.81138587    -0.08200
C639        C  0.41875464  0.30565598  0.82900764     0.62200
H640        H  0.46898839  0.29363949  0.79800779     0.12900
H641        H  0.35499810  0.21047374  0.78968417     0.12900
C642        C  0.40430486  0.20315390  0.75697179     0.62400
F643        F  0.44842582  0.33107565  0.82557434    -0.22700
F644        F  0.42579798  0.28821902  0.84750576    -0.20100
F645        F  0.38604049  0.32524827  0.83080910    -0.19700
F646        F  0.43278011  0.17804415  0.75620391    -0.19800
F647        F  0.40592344  0.22458818  0.73931142    -0.20100
F648        F  0.36995643  0.18337457  0.75695076    -0.22800
C649        C  0.30916795  0.01243025  0.70720362    -0.05600
C650        C  0.31407636  0.49871922  0.72685846     0.00300
C651        C  0.35203906  0.48930610  0.73141703    -0.08300
C652        C  0.37978688  0.49261918  0.71562190    -0.05700
C653        C  0.37213862  0.50685866  0.69594189     0.00300
C654        C  0.33710585  0.01720514  0.69169008    -0.08200
C655        C  0.32735264  0.03851942  0.67235272     0.62200
H656        H  0.28057910  0.02020625  0.70397731     0.12900
H657        H  0.40805820  0.48387178  0.71877935     0.12900
C658        C  0.36555911  0.47548328  0.75232898     0.62400
F659        F  0.29484180  0.05816548  0.67522665    -0.22700
F660        F  0.32093250  0.51611777  0.65611830    -0.20100
F661        F  0.35635759  0.06400703  0.66788167    -0.19700
F662        F  0.36900289  0.43745411  0.75097189    -0.19800
F663        F  0.34530651  0.98341325  0.76820320    -0.20100
F664        F  0.40064024  0.49182529  0.75708424    -0.22800
C665        C  0.18209515  0.47511226  0.70557131    -0.05600
C666        C  0.18594416  0.99866879  0.72203671     0.00300
C667        C  0.15683571  0.02430465  0.72454947    -0.08300
C668        C  0.12783238  0.02494743  0.70937095    -0.05700
C669        C  0.12708068  0.00077056  0.69183204     0.00300
C670        C  0.15402214  0.47592126  0.69010801    -0.08200
C671        C  0.15675876  0.44972363  0.67135936     0.62200
H672        H  0.20487312  0.45603027  0.70399651     0.12900
H673        H  0.10557259  0.04456667  0.71102750     0.12900
C674        C  0.15600710  0.05019065  0.74342806     0.62400
F675        F  0.18384526  0.42357454  0.67405810    -0.22700
F676        F  0.16578135  0.96404402  0.65340961    -0.20100
F677        F  0.12247870  0.43074725  0.66808071    -0.19700
F678        F  0.18722065  0.07448566  0.74309982    -0.19800
F679        F  0.14753484  0.52613104  0.76293022    -0.20100
F680        F  0.12391629  0.07081917  0.74384607    -0.22800
C681        C  0.21677239  0.06433187  0.79253628    -0.05600
C682        C  0.24759412  0.05902893  0.77903285     0.00300
C683        C  0.27722210  0.08689929  0.77856610    -0.08300
C684        C  0.27621570  0.11721627  0.79294064    -0.05700
C685        C  0.24631359  0.12100482  0.80717049     0.00300
C686        C  0.21486731  0.09558694  0.80594600    -0.08200
C687        C  0.17896750  0.10187256  0.81831612     0.62200
H688        H  0.19430938  0.04311142  0.79295562     0.12900
H689        H  0.29939536  0.13774954  0.79362641     0.12900
C690        C  0.31054792  0.08430346  0.76376189     0.62400
F691        F  0.14926598  0.07873065  0.81134720    -0.22700
F692        F  0.16842586  0.13816746  0.81621157    -0.20100
F693        F  0.18482041  0.09502676  0.83913024    -0.19700
F694        F  0.29863413  0.08791628  0.74342346    -0.19800
F695        F  0.32703908  0.05067429  0.76586667    -0.20100
F696        F  0.33804009  0.11187863  0.76777609    -0.22800
C697        C  0.21542475  0.42223567  0.79741764    -0.05600
C698        C  0.23619973  0.41975332  0.77869409     0.00300
C699        C  0.25054539  0.38440353  0.77317933    -0.08300
C700        C  0.25350007  0.35781285  0.78888874    -0.05700
C701        C  0.23755135  0.36288743  0.80883332     0.00300
C702        C  0.21515711  0.39431578  0.81241124    -0.08200
C703        C  0.19058893  0.39891367  0.83172914     0.62200
H704        H  0.19964465  0.44683561  0.80054039     0.12900
H705        H  0.26756633  0.33228477  0.78526101     0.12900
C706        C  0.25963149  0.37151107  0.75103454     0.62400
F707        F  0.16360747  0.42515298  0.82891717    -0.22700
F708        F  0.21287125  0.41049075  0.84849370    -0.20100
F709        F  0.17156381  0.36570677  0.83617784    -0.19700
F710        F  0.29833272  0.36938275  0.74862708    -0.19800
F711        F  0.24561319  0.39424613  0.73603692    -0.20100
F712        F  0.24316703  0.33648845  0.74740677    -0.22800
C713        C  0.09542601  0.22672733  0.02396103    -0.05600
C714        C  0.07363692  0.25829226  0.02320255     0.00300
C715        C  0.08384598  0.29045003  0.03540355    -0.08300
C716        C  0.11403210  0.28848450  0.04933797    -0.05700
C717        C  0.13425654  0.25613574  0.05090235     0.00300
C718        C  0.12611441  0.22518741  0.03758421    -0.08200
C719        C  0.14873731  0.19035578  0.03838642     0.62200
H720        H  0.08722346  0.20267182  0.01445654     0.12900
H721        H  0.12149561  0.31187938  0.05962392     0.12900
C722        C  0.06332540  0.32665742  0.03384150     0.62400
F723        F  0.13459010  0.16273563  0.02487321    -0.22700
F724        F  0.14783354  0.17661718  0.05840087    -0.20100
F725        F  0.18577592  0.19872191  0.03273148    -0.19700
F726        F  0.06153522  0.33696865  0.01321489    -0.19800
F727        F  0.08173709  0.35527551  0.04497181    -0.20100
F728        F  0.02712298  0.32288164  0.04179904    -0.22800
C729        C  0.43278406  0.22623809  0.04098891    -0.05600
C730        C  0.43558844  0.25631447  0.02740257     0.00300
C731        C  0.40792293  0.28364536  0.02842576    -0.08300
C732        C  0.37745883  0.27863267  0.04237298    -0.05700
C733        C  0.37561172  0.24938833  0.05654328     0.00300
C734        C  0.40331491  0.22204074  0.05550484    -0.08200
C735        C  0.40312163  0.18727292  0.06851099     0.62200
H736        H  0.45423774  0.20555984  0.04027816     0.12900
H737        H  0.35589393  0.29909309  0.04304923     0.12900
C738        C  0.40973769  0.31919758  0.01612220     0.62400
F739        F  0.40373490  0.15642522  0.05528946    -0.22700
F740        F  0.37186944  0.18316120  0.08123849    -0.20100
F741        F  0.43507599  0.18805756  0.08090417    -0.19700
F742        F  0.38229295  0.31682874  0.00083363    -0.19800
F743        F  0.44452185  0.32630554  0.00689895    -0.20100
F744        F  0.40272414  0.34911216  0.02927303    -0.22800
C745        C  0.09565416  0.27435811  0.97524140    -0.05600
C746        C  0.07050969  0.24362627  0.97696696     0.00300
C747        C  0.07746924  0.21009526  0.96590753    -0.08300
C748        C  0.10822848  0.20966869  0.95204199    -0.05700
C749        C  0.13258560  0.24093417  0.94979954     0.00300
C750        C  0.12715231  0.27345265  0.96200283    -0.08200
C751        C  0.15372098  0.30741602  0.96054546     0.62200
H752        H  0.08986006  0.29943198  0.98401632     0.12900
H753        H  0.11295139  0.18517884  0.94245753     0.12900
C754        C  0.05243202  0.17513076  0.96838678     0.62400
F755        F  0.14148930  0.33691112  0.97262672    -0.22700
F756        F  0.15618591  0.31876598  0.94007478    -0.20100
F757        F  0.18915415  0.29880229  0.96752496    -0.19700
F758        F  0.01869590  0.17863351  0.95796576    -0.19800
F759        F  0.04490814  0.16897527  0.98926134    -0.20100
F760        F  0.06963688  0.14410080  0.96031847    -0.22800
C761        C  0.42940141  0.28401886  0.96619175    -0.05600
C762        C  0.43324415  0.25374825  0.97933968     0.00300
C763        C  0.40746464  0.22270522  0.97759001    -0.08300
C764        C  0.37743229  0.22431728  0.96338527    -0.05700
C765        C  0.37451471  0.25425794  0.94989161     0.00300
C766        C  0.40067574  0.28488872  0.95136199    -0.08200
C767        C  0.40104134  0.31842210  0.93730341     0.62200
H768        H  0.45016328  0.30697711  0.96706542     0.12900
H769        H  0.35756014  0.20072059  0.96175957     0.12900
C770        C  0.41110086  0.18660589  0.98909101     0.62400
F771        F  0.40491929  0.35063859  0.94938021    -0.22700
F772        F  0.36865141  0.32085001  0.92553105    -0.20100
F773        F  0.43161986  0.31669388  0.92387946    -0.19700
F774        F  0.38090039  0.18215086  0.00265339    -0.19800
F775        F  0.44420073  0.18502682  0.00029267    -0.20100
F776        F  0.41023430  0.15716281  0.97485076    -0.22800
C777        C  0.35940028  0.52675654  0.30719318    -0.05600
C778        C  0.37555393  0.49211150  0.30797796     0.00300
C779        C  0.36296828  0.46314091  0.29428162    -0.08300
C780        C  0.33347009  0.46986354  0.28033378    -0.05700
C781        C  0.31775027  0.50506327  0.27894824     0.00300
C782        C  0.33122224  0.53437622  0.29271142    -0.08200
C783        C  0.31747329  0.57396279  0.29263320     0.62200
H784        H  0.36976384  0.54835188  0.31798841     0.12900
H785        H  0.32239153  0.44732892  0.27045750     0.12900
C786        C  0.37938378  0.42497239  0.29515653     0.62400
F787        F  0.32416734  0.59200783  0.31164814    -0.22700
F788        F  0.27905928  0.57480323  0.28904201    -0.20100
F789        F  0.31993709  0.09705094  0.28211415    -0.19700
F790        F  0.37066732  0.40950768  0.31423927    -0.19800
F791        F  0.42487848  0.94276913  0.28655891    -0.20100
F792        F  0.37326441  0.90905306  0.27668065    -0.22800
C793        C  0.14718185  0.99509630  0.27155485    -0.05600
C794        C  0.18625506  0.49109062  0.27992759     0.00300
C795        C  0.19177566  0.48414568  0.30150656    -0.08300
C796        C  0.15987010  0.48035693  0.31463675    -0.05700
C797        C  0.12256405  0.48396232  0.30755366     0.00300
C798        C  0.11546232  0.99362829  0.28506778    -0.08200
C799        C  0.07652857  0.99961645  0.27604195     0.62200
H800        H  0.14305962  0.00052552  0.25517626     0.12900
H801        H  0.16417401  0.47523998  0.33102012     0.12900
C802        C  0.23062765  0.48271631  0.31143735     0.62400
F803        F  0.07805397  0.00696655  0.25490623    -0.22700
F804        F  0.06043395  0.02952947  0.28602416    -0.20100
F805        F  0.05784565  0.45624097  0.27973976    -0.19700
F806        F  0.22583533  0.96912205  0.33074413    -0.19800
F807        F  0.24867773  0.45153508  0.30454178    -0.20100
F808        F  0.25181329  0.51423197  0.30666396    -0.22800
C809        C  0.26810474  0.10688813  0.19089434    -0.05600
C810        C  0.24172222  0.13393709  0.19472577     0.00300
C811        C  0.21980011  0.13247906  0.21321989    -0.08300
C812        C  0.22339588  0.10192107  0.22643117    -0.05700
C813        C  0.24860536  0.07317317  0.22206040     0.00300
C814        C  0.27401648  0.07811836  0.20470628    -0.08200
C815        C  0.30739733  0.05431329  0.19909338     0.62200
H816        H  0.28552933  0.10907462  0.17695867     0.12900
H817        H  0.20714256  0.10147064  0.24065640     0.12900
C818        C  0.19229461  0.16245398  0.21886219     0.62400
F819        F  0.32198148  0.03678767  0.21589041    -0.22700
F820        F  0.33685287  0.07628609  0.19112989    -0.20100
F821        F  0.29654466  0.02824974  0.18392094    -0.19700
F822        F  0.16767221  0.16710749  0.20247473    -0.19800
F823        F  0.21203895  0.19561762  0.22310773    -0.20100
F824        F  0.17097432  0.15354838  0.23635638    -0.22800
C825        C  0.28307328  0.39248870  0.20135682    -0.05600
C826        C  0.24843628  0.37335166  0.19804923     0.00300
C827        C  0.21685071  0.38215834  0.21059050    -0.08300
C828        C  0.22019604  0.41291306  0.22456982    -0.05700
C829        C  0.25441914  0.43367437  0.22684545     0.00300
C830        C  0.28700069  0.42186564  0.21596844    -0.08200
C831        C  0.32649740  0.43897208  0.21881005     0.62200
H832        H  0.30747869  0.38446172  0.19227236     0.12900
H833        H  0.19565381  0.42207723  0.23309880     0.12900
C834        C  0.17981515  0.35969989  0.20885449     0.62400
F835        F  0.35079987  0.41153019  0.22408749    -0.22700
F836        F  0.32867523  0.46593541  0.23428243    -0.20100
F837        F  0.33865361  0.45451364  0.20028295    -0.19700
F838        F  0.18573597  0.32323493  0.21375075    -0.19800
F839        F  0.16600328  0.36098931  0.18871275    -0.20100
F840        F  0.15267606  0.37290931  0.22242402    -0.22800
C841        C  0.24905869  0.53843885  0.23695933     0.86600
C842        C  0.21536794  0.53232717  0.25241773    -0.53600
C843        C  0.21623186  0.00098555  0.26336106     0.09600
C844        C  0.25320713  0.98016680  0.25941623     0.20500
C845        C  0.28388465  0.53903565  0.25109625    -0.54300
C846        C  0.28509055  0.01018933  0.26317588     0.09700
C847        C  0.24936009  0.50154076  0.22472085    -0.54700
C848        C  0.25420208  0.97165860  0.23570081     0.10200
H849        H  0.19106330  0.54946132  0.25357346     0.14800
H850        H  0.25617088  0.95477867  0.26839543     0.00500
H851        H  0.30545066  0.56106997  0.25042877     0.15100
H852        H  0.24889010  0.00004896  0.20690213     0.14800
C853        C  0.47106081  0.75387938  0.01221131     0.02400
C854        C  0.47052441  0.75050162  0.99013276     0.02400
C855        C  0.00449377  0.74954724  0.98062441    -0.18100
C856        C  0.03889278  0.74908599  0.99111003     0.02400
C857        C  0.03963600  0.75381086  0.01292715     0.02400
C858        C  0.00576029  0.75541966  0.02396262    -0.18100
H859        H  0.00636039  0.75630434  0.04091035     0.04400
H860        H  0.00411774  0.74715008  0.96370094     0.04400
C861        C  0.24323599  0.95370138  0.76490721     0.86600
C862        C  0.21079122  0.95942142  0.74977272    -0.53600
C863        C  0.21044684  0.49176371  0.73970634     0.09600
C864        C  0.24676264  0.51621190  0.74408389     0.20500
C865        C  0.27935001  0.95688015  0.75160168    -0.54300
C866        C  0.28054162  0.49028315  0.74074495     0.09700
C867        C  0.24574026  0.98972477  0.77856817    -0.53900
C868        C  0.24641119  0.52351713  0.76787900     0.10200
H869        H  0.18731415  0.93934837  0.74766931     0.14800
H870        H  0.24808459  0.54176636  0.73477461     0.00500
H871        H  0.30011910  0.93574685  0.75097673     0.15100
H872        H  0.24439114  0.49237723  0.79599222     0.14800
C873        C  0.00454551  0.78990519  0.73571551     0.86600
C874        C  0.47438691  0.78905721  0.75193679    -0.53600
C875        C  0.47241502  0.75834442  0.76404255     0.09600
C876        C  0.00459172  0.73059613  0.75872603     0.20500
C877        C  0.03905706  0.78802412  0.74998385    -0.54300
C878        C  0.04043252  0.75696037  0.76183848     0.09700
C879        C  0.00150676  0.75318540  0.72330059    -0.53900
C880        C  0.00284937  0.72212302  0.73498817     0.10200
H881        H  0.45196526  0.80863073  0.75262898     0.14800
H882        H  0.00373677  0.70527389  0.76825641     0.00500
H883        H  0.05945412  0.81098968  0.75116706     0.15100
H884        H  0.99794608  0.75175606  0.70645276     0.14800
C885        C  0.24249314  0.96469798  0.01293085     0.02400
C886        C  0.24373001  0.96426168  0.99079485     0.02400
C887        C  0.24447591  0.49773163  0.97983924    -0.18100
C888        C  0.24620555  0.53234939  0.99030283     0.02400
C889        C  0.24241420  0.53356394  0.01229170     0.02400
C890        C  0.24092180  0.49995047  0.02320583    -0.18100
H891        H  0.24003647  0.50091610  0.04013972     0.04400
H892        H  0.24555237  0.49700545  0.96293077     0.04400
O893        O  0.35827974  0.75341931  0.91393539    -0.75100
O894        O  0.31164655  0.74963255  0.93861701    -0.54100
C895        C  0.34636194  0.75283036  0.93295469     0.78600
O896        O  0.24221610  0.84548052  0.84360494    -0.59700
O897        O  0.24682761  0.79963493  0.81874993    -0.52800
C898        C  0.24199875  0.83362972  0.82447426     0.70600
O899        O  0.24969692  0.84858612  0.91439830    -0.74300
O900        O  0.25375026  0.80384965  0.93882713    -0.54900
C901        C  0.25122379  0.83785036  0.93348621     0.76600
O902        O  0.36009255  0.75113420  0.84396370    -0.59400
O903        O  0.31427388  0.74742631  0.81891910    -0.52600
C904        C  0.34931725  0.75051670  0.82481487     0.73200
Zr905      Zr  0.33235167  0.75021403  0.87867219     2.54700
O906        O  0.37779551  0.80261356  0.88001777    -0.80000
O907        O  0.38137554  0.70465155  0.87866187    -0.93400
Zr908      Zr  0.25013843  0.82186023  0.87880745     2.64700
O909        O  0.29735175  0.87255083  0.87616865    -0.98400
O910        O  0.19823413  0.86406065  0.88154012    -0.80400
O911        O  0.29229935  0.78781106  0.89900067    -0.83800
O912        O  0.29175569  0.78595469  0.85829383    -2.18500
O913        O  0.25077071  0.63891851  0.84344063    -0.67200
O914        O  0.25267574  0.68392377  0.81871595    -0.51800
C915        C  0.25027955  0.64983447  0.82437579     0.71600
O916        O  0.14878713  0.73770444  0.91443702    -0.60100
O917        O  0.19605656  0.74466769  0.93851758    -0.52100
C918        C  0.16119738  0.74147021  0.93323528     0.73400
O919        O  0.14572173  0.73847336  0.84494023    -0.71500
O920        O  0.19178881  0.73920456  0.82002913    -0.50200
C921        C  0.15665556  0.73866009  0.82582977     0.74800
O922        O  0.25843917  0.64222738  0.91424336    -0.66800
O923        O  0.25296481  0.68899499  0.93856117    -0.54000
C924        C  0.25535780  0.65460011  0.93321449     0.73100
Zr925      Zr  0.25704514  0.66651452  0.87867122     2.77500
O926        O  0.21322436  0.61358102  0.88319698    -0.97600
O927        O  0.31190075  0.62817932  0.87484269    -0.78400
Zr928      Zr  0.17461206  0.73810590  0.87921776     2.70100
O929        O  0.12911882  0.68559630  0.87851996    -0.79600
O930        O  0.12616729  0.78417705  0.88139005    -0.98700
Zr931      Zr  0.25398040  0.74575382  0.91887435     2.21500
Zr932      Zr  0.25327738  0.74274588  0.83800240     2.11100
O933        O  0.21496833  0.70118259  0.85864446    -2.47400
O934        O  0.21534462  0.70230785  0.89919174    -0.79400
O935        O  0.29514376  0.70729223  0.85804219    -0.71600
O936        O  0.21201213  0.78127611  0.89924919    -2.32600
O937        O  0.29560006  0.70833567  0.89907092    -2.28800
O938        O  0.21191133  0.77940174  0.85856447    -0.73400
H939        H  0.30652376  0.80222483  0.84933983     0.78600
H940        H  0.19605013  0.79564698  0.90829909     0.79700
H941        H  0.19926482  0.68476072  0.84993595     0.81900
H942        H  0.31166863  0.69464777  0.90803812     0.79500
H943        H  0.17666529  0.84884295  0.88702642     0.42600
H944        H  0.12795090  0.79750623  0.86803176     0.41500
H945        H  0.10809494  0.69340046  0.88763479     0.41200
H946        H  0.18937515  0.62114053  0.87680462     0.39100
H947        H  0.31538002  0.61741947  0.88877176     0.42300
H948        H  0.37676582  0.69024251  0.89148761     0.37100
H949        H  0.36213516  0.82475104  0.88068569     0.43200
H950        H  0.28243759  0.89487377  0.87418996     0.39600
H951        H  0.22267561  0.59382575  0.87381919     0.44500
H952        H  0.40505263  0.71941359  0.88153100     0.43200
H953        H  0.30794009  0.87575790  0.89041408     0.43400
H954        H  0.10191784  0.76956421  0.88054485     0.43700
O955        O  0.25306490  0.85619054  0.16154168    -0.75100
O956        O  0.24978840  0.81024626  0.18564448    -0.54100
C957        C  0.25125835  0.84453323  0.18048361     0.78600
O958        O  0.15123680  0.75060784  0.08702866    -0.59700
O959        O  0.19959354  0.75093117  0.06333007    -0.52800
C960        C  0.16451180  0.75058553  0.06833505     0.70600
O961        O  0.14371547  0.75377750  0.15659506    -0.74300
O962        O  0.18797948  0.75433472  0.18214477    -0.54900
C963        C  0.15328004  0.75461137  0.17586535     0.76600
O964        O  0.25509273  0.85673154  0.09028436    -0.59400
O965        O  0.25679593  0.81057787  0.06527954    -0.52600
C966        C  0.25590873  0.84495267  0.07112142     0.73200
Zr967      Zr  0.25430569  0.83097700  0.12553665     2.54700
O968        O  0.20429543  0.87547836  0.12651789    -0.80000
O969        O  0.30390827  0.87973874  0.12585018    -0.93400
Zr970      Zr  0.17412068  0.75104556  0.12274997     2.64700
O971        O  0.12442034  0.79563418  0.12107525    -0.98400
O972        O  0.12850785  0.69864152  0.12152404    -0.80400
O973        O  0.21219216  0.79141112  0.14447750    -0.83800
O974        O  0.21515171  0.79154698  0.10390947    -2.18500
O975        O  0.36036104  0.75255214  0.09108750    -0.67200
O976        O  0.31515619  0.75131008  0.06572007    -0.51800
C977        C  0.34958036  0.75082630  0.07188027     0.71600
O978        O  0.24784345  0.65019675  0.15913551    -0.60100
O979        O  0.24484776  0.69588382  0.18427953    -0.52100
C980        C  0.24540845  0.66165887  0.17832076     0.73400
O981        O  0.24797914  0.64862154  0.08825111    -0.71500
O982        O  0.25278272  0.69442914  0.06416911    -0.50200
C983        C  0.24935516  0.66009687  0.06932009     0.74800
O984        O  0.35666504  0.74797800  0.16103678    -0.66800
O985        O  0.30924918  0.74983221  0.18526880    -0.54000
C986        C  0.34434470  0.74684934  0.17995315     0.73100
Zr987      Zr  0.33183485  0.75519008  0.12597552     2.77500
O988        O  0.38631468  0.71614839  0.12773903    -0.97600
O989        O  0.37282746  0.81099376  0.12841622    -0.78400
Zr990      Zr  0.25066887  0.67503484  0.12380480     2.70100
O991        O  0.29932128  0.62916816  0.12271283    -0.79600
O992        O  0.19851746  0.62876042  0.12294879    -0.98700
Zr993      Zr  0.25010145  0.75307901  0.16514664     2.21500
Zr994      Zr  0.25589503  0.75265821  0.08429144     2.11100
O995        O  0.29355712  0.71394234  0.10483147    -2.47400
O996        O  0.29046099  0.71463139  0.14501611    -0.79400
O997        O  0.29527544  0.79379342  0.10519147    -0.71600
O998        O  0.21038760  0.71281995  0.14385903    -2.32600
O999        O  0.29250797  0.79359741  0.14635627    -2.28800
O1000       O  0.21338439  0.71239785  0.10278334    -0.73400
H1001       H  0.20040882  0.80632282  0.09480690     0.78600
H1002       H  0.19361951  0.69761051  0.15235241     0.79700
H1003       H  0.30905380  0.69856894  0.09607841     0.81900
H1004       H  0.30791903  0.80888953  0.15582472     0.79500
H1005       H  0.13543314  0.68412002  0.10888486     0.42600
H1006       H  0.18042684  0.63745208  0.13362762     0.41500
H1007       H  0.32337270  0.64392693  0.12428358     0.41200
H1008       H  0.37752995  0.69178137  0.12179299     0.39100
H1009       H  0.37518709  0.81966944  0.11387962     0.42300
H1010       H  0.31564115  0.87865402  0.13982743     0.37100
H1011       H  0.18921114  0.86983321  0.11376830     0.43200
H1012       H  0.13422235  0.81492610  0.11146262     0.39600
H1013       H  0.40500751  0.72621400  0.11758480     0.44500
H1014       H  0.29015049  0.90313332  0.12619323     0.43200
H1015       H  0.10353292  0.78254043  0.11331921     0.43400
H1016       H  0.18560898  0.63244307  0.10949268     0.43700
O1017       O  0.10584223  0.00223764  0.65673647    -0.75100
O1018       O  0.06138203  0.00563892  0.68254742    -0.54100
C1019       C  0.09324395  0.50340097  0.67670605     0.78600
O1020       O  0.49435737  0.60613591  0.58866074    -0.59700
O1021       O  0.49352792  0.55840517  0.56463045    -0.52800
C1022       C  0.49312197  0.59308346  0.56974601     0.70600
O1023       O  0.49671335  0.61050964  0.65982201    -0.74300
O1024       O  0.49877741  0.56608194  0.68473261    -0.54900
C1025       C  0.49672498  0.59985670  0.67895223     0.76600
O1026       O  0.09856913  0.50566058  0.58695082    -0.59400
O1027       O  0.05081890  0.49791977  0.56325222    -0.52600
C1028       C  0.08586430  0.50193289  0.56813113     0.73200
Zr1029     Zr  0.07610856  0.00226737  0.62243486     2.54700
O1030       O  0.12566172  0.55022586  0.62429501    -0.80000
O1031       O  0.11547287  0.94909639  0.61673133    -0.93400
Zr1032     Zr  0.49877955  0.58324482  0.62438201     2.64700
O1033       O  0.05090298  0.62358731  0.62438157    -0.98400
O1034       O  0.44952205  0.62834629  0.62350763    -0.80400
O1035       O  0.03727095  0.54331679  0.64372566    -0.83800
O1036       O  0.03530153  0.54076150  0.60286609    -2.18500
O1037       O  0.49661290  0.89636819  0.58961972    -0.67200
O1038       O  0.49678193  0.94079539  0.56469388    -0.51800
C1039       C  0.49740250  0.90679011  0.57052012     0.71600
O1040       O  0.39207182  0.99953206  0.65934134    -0.60100
O1041       O  0.43878875  0.00432069  0.68378084    -0.52100
C1042       C  0.40353633  0.00240395  0.67833428     0.73400
O1043       O  0.39084568  0.50466223  0.59069074    -0.71500
O1044       O  0.43697345  0.50066066  0.56579375    -0.50200
C1045       C  0.40361063  0.00119867  0.57007772     0.74800
O1046       O  0.50100937  0.90111636  0.65946198    -0.66800
O1047       O  0.50176251  0.94803712  0.68391637    -0.54000
C1048       C  0.50252314  0.91354707  0.67845189     0.73100
Zr1049     Zr  0.49581377  0.92508707  0.62437235     2.77500
O1050       O  0.44022643  0.88321778  0.62627374    -0.97600
O1051       O  0.04187809  0.87815957  0.62664734    -0.78400
Zr1052     Zr  0.41853250  0.00015599  0.62435934     2.70100
O1053       O  0.37248403  0.94816809  0.62311074    -0.79600
O1054       O  0.38093113  0.56000271  0.62706311    -0.98700
Zr1055     Zr  0.49924662  0.00500947  0.66457690     2.21500
Zr1056     Zr  0.49543791  0.50218816  0.58478826     2.11100
O1057       O  0.45588638  0.96064124  0.60379161    -2.47400
O1058       O  0.45749703  0.96357722  0.64518776    -0.79400
O1059       O  0.03481766  0.96110868  0.60340336    -0.71600
O1060       O  0.45898813  0.54511001  0.64551833    -2.32600
O1061       O  0.03669632  0.96459367  0.64409225    -2.28800
O1062       O  0.45757738  0.54284871  0.60463604    -0.73400
H1063       H  0.05036768  0.55589527  0.59345722     0.78600
H1064       H  0.44368179  0.56041341  0.65442879     0.79700
H1065       H  0.43998140  0.94475590  0.59488673     0.81900
H1066       H  0.05214407  0.94978002  0.65280064     0.79500
H1067       H  0.46132925  0.65028013  0.61663190     0.42600
H1068       H  0.39053947  0.57529139  0.61537483     0.41500
H1069       H  0.34767993  0.95986718  0.62261445     0.41200
H1070       H  0.42609264  0.88711246  0.61323768     0.39100
H1071       H  0.02740223  0.85407946  0.62653637     0.42300
H1072       H  0.11312380  0.93459057  0.62964658     0.37100
H1073       H  0.14898178  0.53597849  0.62342541     0.43200
H1074       H  0.06255688  0.62127340  0.61036332     0.39600
H1075       H  0.45030098  0.85812115  0.62444369     0.44500
H1076       H  0.14175267  0.95955819  0.61666750     0.43200
H1077       H  0.03966330  0.64830625  0.62457006     0.43400
H1078       H  0.35524542  0.55121968  0.62272713     0.43700
O1079       O  0.50173010  0.59215822  0.34207014    -0.75100
O1080       O  0.50127606  0.54473256  0.31790929    -0.54100
C1081       C  0.50238496  0.57943202  0.32313729     0.78600
O1082       O  0.10225028  0.99449294  0.41343384    -0.59700
O1083       O  0.05531835  0.99638403  0.43804100    -0.52800
C1084       C  0.08901961  0.49310343  0.43308893     0.70600
O1085       O  0.10226125  0.99140540  0.34241340    -0.74300
O1086       O  0.05588155  0.98465797  0.31807361    -0.54900
C1087       C  0.09180827  0.48487928  0.32398662     0.76600
O1088       O  0.49765095  0.59737759  0.41240383    -0.59400
O1089       O  0.49868937  0.55325823  0.43743903    -0.52600
C1090       C  0.99949527  0.58694348  0.43113758     0.73200
Zr1091     Zr  0.49802720  0.56865821  0.37740436     2.54700
O1092       O  0.04542369  0.61732227  0.37583214    -0.80000
O1093       O  0.44547939  0.61012254  0.37578538    -0.93400
Zr1094     Zr  0.07681552  0.99234811  0.37803498     2.64700
O1095       O  0.12357984  0.54210938  0.37890361    -0.98400
O1096       O  0.12442989  0.94542771  0.37850114    -0.80400
O1097       O  0.03807889  0.52787970  0.35767614    -0.83800
O1098       O  0.03768269  0.53127105  0.39829609    -2.18500
O1099       O  0.39052341  0.99395902  0.41395810    -0.67200
O1100       O  0.44018652  0.49184568  0.43784486    -0.51800
C1101       C  0.40261169  0.99393521  0.43288715     0.71600
O1102       O  0.48765510  0.88750579  0.34495165    -0.60100
O1103       O  0.49064838  0.93105163  0.31969981    -0.52100
C1104       C  0.48742139  0.89721107  0.32574952     0.73400
O1105       O  0.49618633  0.89249945  0.41501004    -0.71500
O1106       O  0.49614202  0.94004301  0.43919013    -0.50200
C1107       C  0.49638098  0.90529867  0.43394477     0.74800
O1108       O  0.39017784  0.99448531  0.34375086    -0.66800
O1109       O  0.43686876  0.99077953  0.31916789    -0.54000
C1110       C  0.40206707  0.99315583  0.32473939     0.73100
Zr1111     Zr  0.41688310  0.99398025  0.37880276     2.77500
O1112       O  0.36690543  0.94558501  0.37906115    -0.97600
O1113       O  0.37044911  0.53386515  0.37868701    -0.78400
Zr1114     Zr  0.49324114  0.91636103  0.37961129     2.70100
O1115       O  0.44030257  0.87168351  0.38288054    -0.79600
O1116       O  0.04988345  0.86766023  0.37780557    -0.98700
Zr1117     Zr  0.49601285  0.99042503  0.33838331     2.21500
Zr1118     Zr  0.49600914  0.99699273  0.41896101     2.11100
O1119       O  0.45461391  0.95601791  0.39938137    -2.47400
O1120       O  0.45410031  0.95273053  0.35887291    -0.79400
O1121       O  0.45778006  0.53056516  0.39826353    -0.71600
O1122       O  0.03833241  0.94908244  0.35849886    -2.32600
O1123       O  0.45825200  0.52738792  0.35739124    -2.28800
O1124       O  0.03831593  0.95326855  0.39941272    -0.73400
H1125       H  0.05341139  0.54757491  0.40709412     0.78600
H1126       H  0.05370497  0.93366307  0.34967350     0.79700
H1127       H  0.43889516  0.94100050  0.40850658     0.81900
H1128       H  0.44297183  0.54176503  0.34834942     0.79500
H1129       H  0.14846631  0.95901897  0.37512742     0.42600
H1130       H  0.06574455  0.87379760  0.39020814     0.41500
H1131       H  0.41980682  0.88219714  0.37466526     0.41200
H1132       H  0.34359369  0.95851069  0.37570289     0.39100
H1133       H  0.34806961  0.52098300  0.37220019     0.42300
H1134       H  0.45386820  0.63240058  0.38409760     0.37100
H1135       H  0.03174705  0.63982056  0.37986858     0.43200
H1136       H  0.11748232  0.55746657  0.39137199     0.39600
H1137       H  0.37177758  0.92993566  0.36652954     0.44500
H1138       H  0.42532692  0.59806372  0.38434234     0.43200
H1139       H  0.14752782  0.53052824  0.38252865     0.43400
H1140       H  0.03754325  0.84323652  0.38090140     0.43700
C1141       C  0.99225942  0.77956724  0.51334563     0.02400
C1142       C  0.99594268  0.78011981  0.49136829     0.02400
C1143       C  0.99435950  0.74643112  0.47994003    -0.18100
C1144       C  0.99033120  0.71183016  0.48971268     0.02400
C1145       C  0.98744539  0.71119951  0.51187841     0.02400
C1146       C  0.98988619  0.74515420  0.52325259    -0.18100
H1147       H  0.98887738  0.74483356  0.54017954     0.04400
H1148       H  0.99645012  0.74719777  0.46304274     0.04400
C1149       C  0.27973252  0.99993534  0.51285044     0.02400
C1150       C  0.28059181  0.00128919  0.49088824     0.02400
C1151       C  0.24692977  0.00199641  0.47974829    -0.18100
C1152       C  0.21240445  0.00147381  0.49006118     0.02400
C1153       C  0.21147831  0.00386612  0.51199268     0.02400
C1154       C  0.24511418  0.00188930  0.52323524    -0.18100
H1155       H  0.24436557  0.00221825  0.54017744     0.04400
H1156       H  0.24759569  0.00206567  0.46279857     0.04400
C1157       C  0.00335094  0.70001287  0.26458133     0.86600
C1158       C  0.46909417  0.70472371  0.25134143    -0.53600
C1159       C  0.46640166  0.73649940  0.24023227     0.09600
C1160       C  0.00052047  0.76196196  0.24370461     0.20500
C1161       C  0.03755122  0.70771560  0.25043717    -0.54300
C1162       C  0.03698271  0.74018003  0.23989220     0.09700
C1163       C  0.99938480  0.73513873  0.27814820    -0.53900
C1164       C  0.99857588  0.76793426  0.26771427     0.10200
H1165       H  0.44683901  0.68333539  0.25017580     0.14800
H1166       H  0.99927522  0.78729151  0.23440988     0.00500
H1167       H  0.05963641  0.68810562  0.24796546     0.15100
H1168       H  0.99667507  0.73380040  0.29502373     0.14800
C1169       C  0.01093111  0.86576282  0.29253206    -0.05600
C1170       C  0.48486994  0.86709709  0.30950222     0.00300
C1171       C  0.46226817  0.83404475  0.31188226    -0.08300
C1172       C  0.46512405  0.80545559  0.29682997    -0.05700
C1173       C  0.49052886  0.80774096  0.27988020     0.00300
C1174       C  0.01376287  0.83751464  0.27712375    -0.08200
C1175       C  0.03973162  0.84487895  0.25864247     0.62200
H1176       H  0.02791578  0.89128467  0.29126911     0.12900
H1177       H  0.44861874  0.77985839  0.29887838     0.12900
C1178       C  0.43606263  0.82785749  0.33047245     0.62400
F1179       F  0.06183690  0.87719444  0.26146810    -0.22700
F1180       F  0.51233076  0.85254616  0.23997093    -0.20100
F1181       F  0.06388995  0.81622117  0.25575443    -0.19700
F1182       F  0.41442915  0.85850746  0.33387575    -0.19800
F1183       F  0.45720807  0.82156340  0.34806700    -0.20100
F1184       F  0.41151572  0.79736189  0.32735223    -0.22800
C1185       C  0.03097731  0.63301577  0.30846913    -0.05600
C1186       C  0.50573264  0.60755221  0.30654588     0.00300
C1187       C  0.48379100  0.60613049  0.28814275    -0.08300
C1188       C  0.48579867  0.63677162  0.27485770    -0.05700
C1189       C  0.00689179  0.66491051  0.27808260     0.00300
C1190       C  0.03479710  0.66222211  0.29426411    -0.08200
C1191       C  0.07083759  0.68685924  0.29608955     0.62200
H1192       H  0.05056356  0.63131830  0.32134052     0.12900
H1193       H  0.46965334  0.63472931  0.26068317     0.12900
C1194       C  0.45738010  0.57308451  0.28281146     0.62400
F1195       F  0.09158252  0.67941762  0.31371204    -0.22700
F1196       F  0.06347027  0.72398389  0.29743150    -0.20100
F1197       F  0.09369720  0.67993776  0.27910944    -0.19700
F1198       F  0.43282408  0.56669556  0.29925534    -0.19800
F1199       F  0.47815983  0.54194683  0.27906289    -0.20100
F1200       F  0.43597831  0.57881920  0.26518860    -0.22800
C1201       C  0.46809068  0.61968902  0.46112166    -0.05600
C1202       C  0.00017922  0.61706843  0.44732674     0.00300
C1203       C  0.02846159  0.64624075  0.44840758    -0.08300
C1204       C  0.02458495  0.67496375  0.46334244    -0.05700
C1205       C  0.99230181  0.67772119  0.47601204     0.00300
C1206       C  0.46293899  0.65120804  0.47411056    -0.08200
C1207       C  0.42392652  0.65540109  0.48343631     0.62200
H1208       H  0.44544254  0.59860316  0.45976357     0.12900
H1209       H  0.04671593  0.69661246  0.46457758     0.12900
C1210       C  0.06310341  0.64966182  0.43438198     0.62400
F1211       F  0.39701794  0.64839561  0.46809999    -0.22700
F1212       F  0.41834987  0.69067437  0.49118158    -0.20100
F1213       F  0.41826448  0.63021672  0.49923709    -0.19700
F1214       F  0.06157917  0.68204337  0.42322339    -0.19800
F1215       F  0.06640504  0.62050854  0.42033914    -0.20100
F1216       F  0.09531096  0.65172212  0.44659439    -0.22800
C1217       C  0.03335158  0.86140124  0.45884811    -0.05600
C1218       C  0.49586981  0.87728059  0.45063196     0.00300
C1219       C  0.46168293  0.85908797  0.45686725    -0.08300
C1220       C  0.46294670  0.82820122  0.46980905    -0.05700
C1221       C  0.99871093  0.81498794  0.47939106     0.00300
C1222       C  0.03370014  0.83148364  0.47272793    -0.08200
C1223       C  0.07111541  0.81648048  0.47938082     0.62200
H1224       H  0.05961484  0.87406129  0.45320690     0.12900
H1225       H  0.43718635  0.81239396  0.47327176     0.12900
C1226       C  0.42391181  0.87254950  0.44997851     0.62400
F1227       F  0.07414884  0.81849062  0.50084668    -0.22700
F1228       F  0.10157487  0.83647495  0.47101536    -0.20100
F1229       F  0.07331896  0.77988776  0.47273514    -0.19700
F1230       F  0.42071928  0.86888349  0.42852775    -0.19800
F1231       F  0.42133067  0.90946032  0.45593814    -0.20100
F1232       F  0.39404538  0.85263758  0.45898925    -0.22800
C1233       C  0.14007435  0.96583622  0.45075667    -0.05600
C1234       C  0.11845614  0.99718699  0.44889040     0.00300
C1235       C  0.12634019  0.52592955  0.46182895    -0.08300
C1236       C  0.15693296  0.52562542  0.47568076    -0.05700
C1237       C  0.17810534  0.99780073  0.47729729     0.00300
C1238       C  0.16974435  0.96531528  0.46506589    -0.08200
C1239       C  0.19311526  0.93090726  0.46589586     0.62200
H1240       H  0.13413229  0.94195272  0.44054312     0.12900
H1241       H  0.16502540  0.55029913  0.48477376     0.12900
C1242       C  0.10504659  0.56112710  0.45917890     0.62400
F1243       F  0.17168788  0.89946499  0.46001598    -0.22700
F1244       F  0.20636508  0.92543223  0.48585499    -0.20100
F1245       F  0.22644925  0.43260748  0.45702537    -0.19700
F1246       F  0.06614268  0.05732549  0.46222918    -0.19800
F1247       F  0.10623614  0.57085622  0.43843051    -0.20100
F1248       F  0.12065978  0.59050746  0.47093405    -0.22800
C1249       C  0.37631595  0.51862050  0.46315046    -0.05600
C1250       C  0.37410635  0.99277737  0.44946272     0.00300
C1251       C  0.34604865  0.96371000  0.45092739    -0.08300
C1252       C  0.31807551  0.96687717  0.46611625    -0.05700
C1253       C  0.31531060  0.99892517  0.47858653     0.00300
C1254       C  0.34554896  0.52381938  0.47665668    -0.08200
C1255       C  0.34358268  0.56153920  0.48741695     0.62200
H1256       H  0.39839193  0.54029091  0.46216687     0.12900
H1257       H  0.29646169  0.94481464  0.46741833     0.12900
C1258       C  0.34225700  0.92981105  0.43651129     0.62400
F1259       F  0.34890992  0.58885137  0.47272870    -0.22700
F1260       F  0.37199736  0.56544537  0.50215442    -0.20100
F1261       F  0.30923247  0.56726627  0.49694029    -0.19700
F1262       F  0.33721837  0.89822181  0.44829127    -0.19800
F1263       F  0.37318896  0.92522093  0.42375853    -0.20100
F1264       F  0.31071426  0.93296255  0.42407604    -0.22800
C1265       C  0.14813188  0.97944844  0.52167173    -0.05600
C1266       C  0.17603059  0.00794893  0.52363403     0.00300
C1267       C  0.17197400  0.53357389  0.53777678    -0.08300
C1268       C  0.14100391  0.53260318  0.55150184    -0.05700
C1269       C  0.11412641  0.50304700  0.55111812     0.00300
C1270       C  0.11607966  0.97865077  0.53450502    -0.08200
C1271       C  0.08574034  0.94825055  0.53122655     0.62200
H1272       H  0.15223987  0.95715199  0.51042370     0.12900
H1273       H  0.13767120  0.55490113  0.56288713     0.12900
C1274       C  0.19818690  0.56804660  0.53748238     0.62400
F1275       F  0.09539073  0.92292468  0.51572566    -0.22700
F1276       F  0.05283627  0.46001310  0.52678674    -0.20100
F1277       F  0.08031008  0.92932186  0.54949015    -0.19700
F1278       F  0.20217748  0.58028600  0.51723941    -0.19800
F1279       F  0.21931407  0.07039907  0.55737585    -0.20100
F1280       F  0.18410942  0.59675491  0.54950839    -0.22800
C1281       C  0.36576344  0.96943392  0.54235609    -0.05600
C1282       C  0.37489838  0.00222209  0.55368919     0.00300
C1283       C  0.35182445  0.53348690  0.55159254    -0.08300
C1284       C  0.32288716  0.52986248  0.53680955    -0.05700
C1285       C  0.31420424  0.99943582  0.52558071     0.00300
C1286       C  0.33501791  0.96713201  0.52851126    -0.08200
C1287       C  0.32536965  0.92944615  0.51839498     0.62200
H1288       H  0.38163208  0.94488779  0.54514833     0.12900
H1289       H  0.30450130  0.55273351  0.53461279     0.12900
C1290       C  0.35799099  0.56989485  0.56363689     0.62400
F1291       F  0.35340736  0.92085742  0.50420969    -0.22700
F1292       F  0.29103508  0.92783708  0.50816758    -0.20100
F1293       F  0.33112091  0.40102136  0.53352572    -0.19700
F1294       F  0.40529898  0.07937189  0.55530084    -0.19800
F1295       F  0.34458716  0.56583088  0.58375797    -0.20100
F1296       F  0.33919095  0.59841494  0.55456230    -0.22800
C1297       C  0.01176214  0.64996748  0.52172267    -0.05600
C1298       C  0.98356860  0.67621480  0.52400844     0.00300
C1299       C  0.45604378  0.67312298  0.53974895    -0.08300
C1300       C  0.46014334  0.64463094  0.55409845    -0.05700
C1301       C  0.98791935  0.61639541  0.55201673     0.00300
C1302       C  0.01413021  0.61972289  0.53528476    -0.08200
C1303       C  0.04577388  0.59282914  0.53250461     0.62200
H1304       H  0.03316345  0.65435919  0.50982056     0.12900
H1305       H  0.43964721  0.64140608  0.56663068     0.12900
C1306       C  0.42110817  0.69606310  0.54259962     0.62400
F1307       F  0.06977448  0.60265942  0.51623490    -0.22700
F1308       F  0.03070885  0.55755032  0.52814288    -0.20100
F1309       F  0.06695860  0.59232830  0.55060127    -0.19700
F1310       F  0.38925577  0.67250598  0.54249885    -0.19800
F1311       F  0.41639957  0.72173621  0.52725049    -0.20100
F1312       F  0.42315831  0.71475954  0.56166950    -0.22800
C1313       C  0.02535928  0.82135390  0.53875370    -0.05600
C1314       C  0.99280691  0.81389157  0.52675801     0.00300
C1315       C  0.46216246  0.84041368  0.52783815    -0.08300
C1316       C  0.46697084  0.87199034  0.54107821    -0.05700
C1317       C  0.49847390  0.87704375  0.55426357     0.00300
C1318       C  0.02823891  0.85104355  0.55327827    -0.08200
C1319       C  0.06396613  0.85356290  0.56640497     0.62200
H1320       H  0.04853181  0.80264676  0.53734622     0.12900
H1321       H  0.44415299  0.89110810  0.54258674     0.12900
C1322       C  0.42297883  0.83298610  0.51874741     0.62400
F1323       F  0.06516226  0.82221674  0.57843394    -0.22700
F1324       F  0.06652893  0.88431069  0.57961111    -0.20100
F1325       F  0.09521174  0.85467557  0.55333521    -0.19700
F1326       F  0.39659826  0.83386307  0.53474201    -0.19800
F1327       F  0.41868220  0.79872590  0.50881286    -0.20100
F1328       F  0.41518654  0.86042918  0.50480302    -0.22800
C1329       C  0.13288269  0.75098585  0.21289673    -0.05600
C1330       C  0.12230262  0.75505237  0.19200035     0.00300
C1331       C  0.08301864  0.75924587  0.18754454    -0.08300
C1332       C  0.05645351  0.75619337  0.20398447    -0.05700
C1333       C  0.06736169  0.75039576  0.22458670     0.00300
C1334       C  0.10656922  0.74998140  0.22926710    -0.08200
C1335       C  0.12302047  0.74988437  0.25106153     0.62200
H1336       H  0.16248327  0.74902752  0.21678042     0.12900
H1337       H  0.02648282  0.75686404  0.20073461     0.12900
C1338       C  0.06830219  0.76718990  0.16586630     0.62400
F1339       F  0.14091171  0.71697077  0.25392945    -0.22700
F1340       F  0.09626971  0.75431925  0.26642855    -0.20100
F1341       F  0.14947210  0.77901725  0.25328719    -0.19700
F1342       F  0.07403069  0.73735238  0.15245719    -0.19800
F1343       F  0.08658925  0.79888298  0.15845605    -0.20100
F1344       F  0.02992093  0.77332098  0.16594520    -0.22800
C1345       C  0.43183122  0.71539550  0.20842790    -0.05600
C1346       C  0.43485071  0.74107439  0.22508378     0.00300
C1347       C  0.40608370  0.76714129  0.22789273    -0.08300
C1348       C  0.37612085  0.76738419  0.21327527    -0.05700
C1349       C  0.37340419  0.74175854  0.19643219     0.00300
C1350       C  0.40112173  0.71430131  0.19453077    -0.08200
C1351       C  0.39953293  0.68248890  0.17860955     0.62200
H1352       H  0.45336126  0.69495137  0.20664863     0.12900
H1353       H  0.35488662  0.78811481  0.21467514     0.12900
C1354       C  0.40629534  0.79380093  0.24650166     0.62400
F1355       F  0.40684839  0.64964679  0.18840835    -0.22700
F1356       F  0.42696609  0.68894849  0.16355026    -0.20100
F1357       F  0.36466352  0.67756239  0.16910022    -0.19700
F1358       F  0.43747608  0.81790902  0.24553455    -0.19800
F1359       F  0.40719547  0.77396627  0.26472937    -0.20100
F1360       F  0.37448476  0.81491340  0.24710048    -0.22800
C1361       C  0.21361077  0.60784851  0.05178253    -0.05600
C1362       C  0.24628638  0.63119215  0.05247016     0.00300
C1363       C  0.27612329  0.62453595  0.03826793    -0.08300
C1364       C  0.27316069  0.59326298  0.02470947    -0.05700
C1365       C  0.24095932  0.56925549  0.02445928     0.00300
C1366       C  0.20976910  0.57784719  0.03742441    -0.08200
C1367       C  0.17225298  0.55591692  0.03693181     0.62200
H1368       H  0.19069845  0.61323223  0.06256742     0.12900
H1369       H  0.29664926  0.58655887  0.01471591     0.12900
C1370       C  0.31191486  0.64892230  0.03839569     0.62400
F1371       F  0.14282914  0.58007052  0.03749486    -0.22700
F1372       F  0.16962779  0.53361767  0.05422386    -0.20100
F1373       F  0.16776814  0.53396633  0.01907608    -0.19700
F1374       F  0.32729777  0.64964076  0.05816897    -0.19800
F1375       F  0.30379093  0.68460002  0.03284221    -0.20100
F1376       F  0.33863200  0.63581623  0.02456963    -0.22800
C1377       C  0.21981045  0.87725153  0.04438371    -0.05600
C1378       C  0.25428066  0.87322371  0.05468054     0.00300
C1379       C  0.28529594  0.89777476  0.05023761    -0.08300
C1380       C  0.28070707  0.92581593  0.03554334    -0.05700
C1381       C  0.24585814  0.93074774  0.02570574     0.00300
C1382       C  0.21464722  0.90639315  0.03039429    -0.08200
C1383       C  0.17567835  0.91190596  0.02149072     0.62200
H1384       H  0.19641303  0.85817383  0.04807206     0.12900
H1385       H  0.30400246  0.94520396  0.03217884     0.12900
C1386       C  0.32264677  0.89497564  0.06150915     0.62400
F1387       F  0.17514837  0.90212703  0.00056755    -0.22700
F1388       F  0.16610390  0.94855368  0.02394671    -0.20100
F1389       F  0.14832381  0.89022968  0.03144561    -0.19700
F1390       F  0.33544218  0.85937155  0.05928609    -0.19800
F1391       F  0.31774462  0.90322457  0.08249042    -0.20100
F1392       F  0.35016205  0.91941140  0.05376384    -0.22800
C1393       C  0.22032044  0.59000018  0.97606815    -0.05600
C1394       C  0.25086147  0.56645540  0.97756885     0.00300
C1395       C  0.28437463  0.57439545  0.96594107    -0.08300
C1396       C  0.28518555  0.60442796  0.95219999    -0.05700
C1397       C  0.25404872  0.62682068  0.94996205     0.00300
C1398       C  0.22136132  0.62028503  0.96242315    -0.08200
C1399       C  0.18728071  0.64435778  0.96066521     0.62200
H1400       H  0.19517681  0.58374984  0.98523213     0.12900
H1401       H  0.30993212  0.61012996  0.94260875     0.12900
C1402       C  0.31911447  0.55111185  0.96776201     0.62400
F1403       F  0.15714340  0.63120121  0.97259940    -0.22700
F1404       F  0.17552179  0.64508832  0.94009058    -0.20100
F1405       F  0.19681576  0.68012484  0.96752221    -0.19700
F1406       F  0.31225512  0.51641206  0.95870896    -0.19800
F1407       F  0.32843175  0.54708992  0.98851695    -0.20100
F1408       F  0.35016435  0.56736514  0.95781337    -0.22800
C1409       C  0.26903680  0.90225036  0.98115644    -0.05600
C1410       C  0.24218215  0.92918932  0.97788615     0.00300
C1411       C  0.21568836  0.92324845  0.96142835    -0.08300
C1412       C  0.22069732  0.89382057  0.94711581    -0.05700
C1413       C  0.24790011  0.86714528  0.95012420     0.00300
C1414       C  0.27066296  0.86993423  0.96839798    -0.08200
C1415       C  0.29688712  0.83968254  0.97444231     0.62200
H1416       H  0.28919170  0.90688973  0.99366354     0.12900
H1417       H  0.20185788  0.89070879  0.93381024     0.12900
C1418       C  0.18084420  0.94601753  0.95871733     0.62400
F1419       F  0.31662428  0.84890619  0.99257751    -0.22700
F1420       F  0.32272095  0.83386178  0.95867009    -0.20100
F1421       F  0.27612358  0.80709183  0.97797167    -0.19700
F1422       F  0.18585273  0.96874580  0.94172439    -0.19800
F1423       F  0.17280611  0.96759119  0.97615398    -0.20100
F1424       F  0.14965736  0.92234147  0.95516065    -0.22800
C1425       C  0.46843724  0.68453364  0.71028639    -0.05600
C1426       C  0.49622674  0.68638987  0.72596466     0.00300
C1427       C  0.02837326  0.65981674  0.72317619    -0.08300
C1428       C  0.02604162  0.63091359  0.70799304    -0.05700
C1429       C  0.49400731  0.62852116  0.69562501     0.00300
C1430       C  0.46616039  0.65554440  0.69542524    -0.08200
C1431       C  0.43422873  0.65418937  0.67964732     0.62200
H1432       H  0.44955154  0.70725148  0.70900593     0.12900
H1433       H  0.04915995  0.61234890  0.70595630     0.12900
C1434       C  0.06260421  0.66378671  0.73727271     0.62400
F1435       F  0.40589605  0.67780907  0.68537932    -0.22700
F1436       F  0.41820597  0.61859543  0.67810027    -0.20100
F1437       F  0.44802598  0.66487826  0.66042666    -0.19700
F1438       F  0.05147272  0.65901060  0.75777877    -0.19800
F1439       F  0.07979550  0.69846460  0.73521481    -0.20100
F1440       F  0.08912508  0.63773469  0.73244612    -0.22800
C1441       C  0.49145104  0.85697630  0.72795011    -0.05600
C1442       C  0.51263713  0.82565888  0.72286194     0.00300
C1443       C  0.53541432  0.82740686  0.70425092    -0.08300
C1444       C  0.53088248  0.85669551  0.69050413    -0.05700
C1445       C  0.50674138  0.88559331  0.69484318     0.00300
C1446       C  0.48712349  0.88623645  0.71407758    -0.08200
C1447       C  0.45983588  0.91632368  0.71949909     0.62200
H1448       H  0.47813525  0.85903360  0.74303771     0.12900
H1449       H  0.54694639  0.85717033  0.67602629     0.12900
C1450       C  0.05795053  0.80012796  0.69498827     0.62400
F1451       F  0.43985705  0.90875320  0.73762489    -0.22700
F1452       F  0.43402127  0.91888430  0.70346464    -0.20100
F1453       F  0.97643680  0.94962048  0.72442410    -0.19700
F1454       F  0.55315585  0.78172971  0.67929928    -0.19800
F1455       F  0.06695686  0.77321367  0.70865513    -0.20100
F1456       F  0.09132296  0.81966788  0.69037711    -0.22800
C1457       C  0.06221673  0.73234678  0.79584313    -0.05600
C1458       C  0.07194758  0.75081740  0.77730411     0.00300
C1459       C  0.11080461  0.76292565  0.77461099    -0.08300
C1460       C  0.13650953  0.75871262  0.79101929    -0.05700
C1461       C  0.12670541  0.74038683  0.80939186     0.00300
C1462       C  0.08890708  0.72577483  0.81159964    -0.08200
C1463       C  0.07639037  0.70253339  0.83011919     0.62200
H1464       H  0.03300939  0.72354608  0.79827811     0.12900
H1465       H  0.16512065  0.77022938  0.78949865     0.12900
C1466       C  0.12746478  0.77961053  0.75485536     0.62400
F1467       F  0.04141542  0.68483849  0.82675483    -0.22700
F1468       F  0.07362270  0.72485229  0.84782894    -0.20100
F1469       F  0.10207631  0.67535574  0.83345225    -0.19700
F1470       F  0.12423092  0.81770902  0.75536208    -0.19800
F1471       F  0.11015727  0.76429766  0.73743710    -0.20100
F1472       F  0.16549369  0.77243240  0.75287320    -0.22800
C1473       C  0.44245462  0.77705277  0.79717581    -0.05600
C1474       C  0.44139178  0.75310730  0.77974546     0.00300
C1475       C  0.40891737  0.72936444  0.77640630    -0.08300
C1476       C  0.37891453  0.72979990  0.79110372    -0.05700
C1477       C  0.38026244  0.75351957  0.80882172     0.00300
C1478       C  0.41238396  0.77830741  0.81156540    -0.08200
C1479       C  0.41528212  0.80682995  0.82931738     0.62200
H1480       H  0.46719343  0.79544471  0.79926185     0.12900
H1481       H  0.35440373  0.71114115  0.78903281     0.12900
C1482       C  0.40580961  0.70417932  0.75725582     0.62400
F1483       F  0.44224130  0.83467282  0.82522230    -0.22700
F1484       F  0.42561128  0.78962494  0.84739168    -0.20100
F1485       F  0.38110292  0.82354960  0.83226142    -0.19700
F1486       F  0.43404947  0.67883174  0.75762191    -0.19800
F1487       F  0.40938780  0.72524199  0.73952018    -0.20100
F1488       F  0.37136149  0.68465386  0.75631030    -0.22800
C1489       C  0.30702897  0.51513970  0.70766479    -0.05600
C1490       C  0.31675835  0.99663021  0.72648200     0.00300
C1491       C  0.35462025  0.98671608  0.73073240    -0.08300
C1492       C  0.38171287  0.98885524  0.71458449    -0.05700
C1493       C  0.37360160  0.00298332  0.69493765     0.00300
C1494       C  0.33538614  0.52042931  0.69237146    -0.08200
C1495       C  0.32549737  0.54096082  0.67273649     0.62200
H1496       H  0.27843364  0.52264102  0.70424282     0.12900
H1497       H  0.40993624  0.97982535  0.71754505     0.12900
C1498       C  0.36880368  0.97439722  0.75180188     0.62400
F1499       F  0.29215860  0.55947792  0.67507909    -0.22700
F1500       F  0.32142420  0.01416867  0.65561038    -0.20100
F1501       F  0.35375163  0.56725267  0.66829862    -0.19700
F1502       F  0.37276727  0.93640746  0.75121510    -0.19800
F1503       F  0.34190543  0.48375794  0.76878989    -0.20100
F1504       F  0.40377267  0.99153453  0.75597076    -0.22800
C1505       C  0.18520232  0.97461808  0.70461280    -0.05600
C1506       C  0.18173314  0.49828813  0.72332087     0.00300
C1507       C  0.15189179  0.52300531  0.72606990    -0.08300
C1508       C  0.12332053  0.52378280  0.71067570    -0.05700
C1509       C  0.12399637  0.50089588  0.69260225     0.00300
C1510       C  0.15628903  0.97483190  0.68956947    -0.08200
C1511       C  0.15667290  0.94638273  0.67177734     0.62200
H1512       H  0.20736959  0.95483464  0.70316879     0.12900
H1513       H  0.10035624  0.54255585  0.71256573     0.12900
C1514       C  0.15000087  0.54779132  0.74537859     0.62400
F1515       F  0.18317651  0.91978354  0.67480838    -0.22700
F1516       F  0.16683585  0.46994417  0.65396850    -0.20100
F1517       F  0.12161593  0.92818547  0.67006205    -0.19700
F1518       F  0.18211928  0.57081695  0.74650624    -0.19800
F1519       F  0.15630496  0.02975221  0.76142434    -0.20100
F1520       F  0.11893054  0.56988214  0.74517710    -0.22800
C1521       C  0.21458257  0.56652522  0.79202684    -0.05600
C1522       C  0.24559117  0.56052621  0.77880216     0.00300
C1523       C  0.27627929  0.58718768  0.77879116    -0.08300
C1524       C  0.27642137  0.61667692  0.79364149    -0.05700
C1525       C  0.24653652  0.62081086  0.80778699     0.00300
C1526       C  0.21399262  0.59693374  0.80605741    -0.08200
C1527       C  0.17866477  0.60375186  0.81880397     0.62200
H1528       H  0.19119221  0.54627102  0.79186710     0.12900
H1529       H  0.30039539  0.63625370  0.79474808     0.12900
C1530       C  0.30937733  0.58411001  0.76391068     0.62400
F1531       F  0.14825420  0.58129737  0.81209268    -0.22700
F1532       F  0.16890355  0.64032602  0.81697912    -0.20100
F1533       F  0.18514948  0.59649462  0.83950841    -0.19700
F1534       F  0.29720187  0.58704990  0.74357178    -0.19800
F1535       F  0.32572375  0.55054220  0.76633325    -0.20100
F1536       F  0.33698273  0.61174459  0.76754808    -0.22800
C1537       C  0.21465167  0.92025887  0.79569167    -0.05600
C1538       C  0.23705638  0.91792328  0.77755024     0.00300
C1539       C  0.25221379  0.88268561  0.77252485    -0.08300
C1540       C  0.25412261  0.85628518  0.78839700    -0.05700
C1541       C  0.23652752  0.86141357  0.80790025     0.00300
C1542       C  0.21351064  0.89251916  0.81078830    -0.08200
C1543       C  0.18800484  0.89750031  0.82967388     0.62200
H1544       H  0.19854802  0.94480063  0.79839261     0.12900
H1545       H  0.26874749  0.83089125  0.78524596     0.12900
C1546       C  0.26273399  0.86947211  0.75064802     0.62400
F1547       F  0.15968510  0.92179427  0.82563451    -0.22700
F1548       F  0.20915883  0.91183775  0.84628365    -0.20100
F1549       F  0.17056374  0.86398817  0.83504769    -0.19700
F1550       F  0.30156837  0.86743359  0.74896875    -0.19800
F1551       F  0.24953150  0.89196357  0.73529720    -0.20100
F1552       F  0.24662246  0.83430792  0.74691809    -0.22800
C1553       C  0.09528166  0.72252110  0.02586224    -0.05600
C1554       C  0.07499190  0.75509055  0.02488367     0.00300
C1555       C  0.08693648  0.78735577  0.03643689    -0.08300
C1556       C  0.11789045  0.78502611  0.04979524    -0.05700
C1557       C  0.13682559  0.75193952  0.05162579     0.00300
C1558       C  0.12643317  0.72041772  0.03918661    -0.08200
C1559       C  0.14714420  0.68454517  0.04075575     0.62200
H1560       H  0.08552679  0.69835951  0.01676101     0.12900
H1561       H  0.12685377  0.80871300  0.05951861     0.12900
C1562       C  0.06710899  0.82396213  0.03486349     0.62400
F1563       F  0.13270785  0.65734460  0.02708099    -0.22700
F1564       F  0.14394344  0.67138519  0.06085553    -0.20100
F1565       F  0.18491808  0.69095380  0.03597519    -0.19700
F1566       F  0.06429421  0.83381460  0.01420672    -0.19800
F1567       F  0.08663040  0.85248612  0.04544563    -0.20100
F1568       F  0.03129889  0.82105294  0.04342272    -0.22800
C1569       C  0.43404114  0.72298806  0.03947184    -0.05600
C1570       C  0.43702518  0.75245133  0.02550158     0.00300
C1571       C  0.41097929  0.78112026  0.02677365    -0.08300
C1572       C  0.38102340  0.77762580  0.04112806    -0.05700
C1573       C  0.37892215  0.74887094  0.05563721     0.00300
C1574       C  0.40586746  0.72076852  0.05476378    -0.08200
C1575       C  0.40685161  0.68764965  0.06904282     0.62200
H1576       H  0.45491434  0.70172639  0.03876710     0.12900
H1577       H  0.36048878  0.79911023  0.04201069     0.12900
C1578       C  0.41471311  0.81694711  0.01471800     0.62400
F1579       F  0.40639806  0.65529559  0.05701377    -0.22700
F1580       F  0.37681699  0.68509376  0.08271647    -0.20100
F1581       F  0.43994419  0.68986261  0.08052470    -0.19700
F1582       F  0.38554369  0.81779961  0.00048172    -0.19800
F1583       F  0.44865522  0.82145195  0.00421243    -0.20100
F1584       F  0.41231035  0.84686045  0.02846505    -0.22800
C1585       C  0.09935797  0.77415467  0.97741016    -0.05600
C1586       C  0.07334752  0.74398227  0.97866753     0.00300
C1587       C  0.07808352  0.71172786  0.96607071    -0.08300
C1588       C  0.10739213  0.71204857  0.95138613    -0.05700
C1589       C  0.13295857  0.74248306  0.94988639     0.00300
C1590       C  0.12951888  0.77395461  0.96323209    -0.08200
C1591       C  0.15630984  0.80781074  0.96181869     0.62200
H1592       H  0.09497000  0.79853740  0.98701750     0.12900
H1593       H  0.11040750  0.68826994  0.94093869     0.12900
C1594       C  0.05209020  0.67721399  0.96686746     0.62400
F1595       F  0.14578650  0.83643679  0.97508063    -0.22700
F1596       F  0.15671160  0.82086043  0.94164826    -0.20100
F1597       F  0.19229229  0.79833789  0.96734007    -0.19700
F1598       F  0.02776752  0.67683963  0.95000302    -0.19800
F1599       F  0.03108903  0.67533859  0.98509320    -0.20100
F1600       F  0.07325976  0.64577820  0.96570685    -0.22800
C1601       C  0.43318051  0.78157301  0.96403793    -0.05600
C1602       C  0.43577155  0.75132806  0.97740619     0.00300
C1603       C  0.40749510  0.72237008  0.97665493    -0.08300
C1604       C  0.37670399  0.72578716  0.96313903    -0.05700
C1605       C  0.37498036  0.75551123  0.94941857     0.00300
C1606       C  0.40305628  0.78450145  0.95018005    -0.08200
C1607       C  0.40300300  0.81885795  0.93675943     0.62200
H1608       H  0.45535517  0.80324645  0.96433478     0.12900
H1609       H  0.35513771  0.70355661  0.96218025     0.12900
C1610       C  0.40909420  0.68645226  0.98849358     0.62400
F1611       F  0.40922244  0.85023997  0.94928376    -0.22700
F1612       F  0.36935108  0.82297523  0.92633757    -0.20100
F1613       F  0.43182633  0.81707003  0.92219347    -0.19700
F1614       F  0.38005076  0.68518222  0.00294253    -0.19800
F1615       F  0.44288395  0.68236487  0.99871292    -0.20100
F1616       F  0.40431574  0.65662369  0.97467328    -0.22800
C1617       C  0.35249168  0.02907570  0.30891759    -0.05600
C1618       C  0.37338279  0.99687509  0.30830972     0.00300
C1619       C  0.36546699  0.96910951  0.29286684    -0.08300
C1620       C  0.33589157  0.97429358  0.27870913    -0.05700
C1621       C  0.31584544  0.00718343  0.27876231     0.00300
C1622       C  0.32430881  0.03538309  0.29416817    -0.08200
C1623       C  0.30383340  0.07184995  0.29582956     0.62200
H1624       H  0.35905973  0.04986419  0.32096956     0.12900
H1625       H  0.32847795  0.95269249  0.26730786     0.12900
C1626       C  0.38764658  0.93397084  0.29166138     0.62400
F1627       F  0.30672214  0.08730030  0.31576595    -0.22700
F1628       F  0.26569561  0.06691472  0.29151011    -0.20100
F1629       F  0.33694897  0.59384826  0.27750740    -0.19700
F1630       F  0.38631961  0.91671356  0.31074463    -0.19800
F1631       F  0.41824032  0.42770840  0.29281299    -0.20100
F1632       F  0.36509363  0.40135689  0.27951378    -0.22800
C1633       C  0.14891689  0.49158590  0.27245400    -0.05600
C1634       C  0.18452725  0.99070529  0.27851304     0.00300
C1635       C  0.18961353  0.98112034  0.29984320    -0.08300
C1636       C  0.15798113  0.97992164  0.31326229    -0.05700
C1637       C  0.12120644  0.98715262  0.30667211     0.00300
C1638       C  0.11692953  0.48811328  0.28567982    -0.08200
C1639       C  0.07785090  0.48916647  0.27596101     0.62200
H1640       H  0.14504790  0.49567567  0.25590528     0.12900
H1641       H  0.16193069  0.97303506  0.32944390     0.12900
C1642       C  0.22750880  0.97246085  0.30924462     0.62400
F1643       F  0.07955077  0.49331020  0.25451580    -0.22700
F1644       F  0.05861564  0.51874599  0.28421565    -0.20100
F1645       F  0.05367102  0.96796000  0.27849263    -0.19700
F1646       F  0.22872780  0.48114907  0.33301510    -0.19800
F1647       F  0.23964805  0.93919777  0.30117877    -0.20100
F1648       F  0.25343721  0.00064161  0.30530774    -0.22800
C1649       C  0.27414171  0.60732646  0.19251263    -0.05600
C1650       C  0.24583315  0.63284683  0.19445285     0.00300
C1651       C  0.21964587  0.62966511  0.21108611    -0.08300
C1652       C  0.22188622  0.59934505  0.22460270    -0.05700
C1653       C  0.24964694  0.57219981  0.22233674     0.00300
C1654       C  0.27765311  0.57789413  0.20622591    -0.08200
C1655       C  0.31257279  0.55554619  0.20174023     0.62200
H1656       H  0.29473868  0.61095569  0.18002597     0.12900
H1657       H  0.20210120  0.59793438  0.23730706     0.12900
C1658       C  0.18937469  0.65791951  0.21454514     0.62400
F1659       F  0.31852263  0.52728454  0.21511981    -0.22700
F1660       F  0.34429645  0.57927240  0.20272864    -0.20100
F1661       F  0.30992176  0.54039359  0.18173474    -0.19700
F1662       F  0.16889430  0.66172398  0.19640459    -0.19800
F1663       F  0.20626597  0.69182338  0.22027737    -0.20100
F1664       F  0.16424987  0.64757775  0.23021068    -0.22800
C1665       C  0.28605609  0.89545206  0.19897004    -0.05600
C1666       C  0.25298720  0.87306058  0.19743805     0.00300
C1667       C  0.22268755  0.87929281  0.21145452    -0.08300
C1668       C  0.22530728  0.91043263  0.22522546    -0.05700
C1669       C  0.25764344  0.93429442  0.22575557     0.00300
C1670       C  0.28949262  0.92517421  0.21339132    -0.08200
C1671       C  0.32786642  0.94521807  0.21475960     0.62200
H1672       H  0.30969301  0.88954285  0.18875368     0.12900
H1673       H  0.20141651  0.91744661  0.23494903     0.12900
C1674       C  0.18743540  0.85397993  0.21133185     0.62400
F1675       F  0.35506019  0.91971797  0.21867370    -0.22700
F1676       F  0.32995144  0.97175424  0.23050887    -0.20100
F1677       F  0.33616377  0.96196290  0.19596869    -0.19700
F1678       F  0.19688470  0.81864146  0.21679478    -0.19800
F1679       F  0.17150475  0.85265354  0.19162210    -0.20100
F1680       F  0.16056479  0.86606720  0.22540592    -0.22800
C1681       C  0.75114652  0.04177518  0.23785569     0.86600
C1682       C  0.71629199  0.03494680  0.25230273    -0.53600
C1683       C  0.71877744  0.50346792  0.26374446     0.09600
C1684       C  0.75521014  0.48214668  0.25898103     0.20500
C1685       C  0.78454724  0.04142328  0.25296894    -0.54300
C1686       C  0.78784232  0.51123430  0.26299205     0.09700
C1687       C  0.75246395  0.00546424  0.22501158    -0.54700
C1688       C  0.75550270  0.47517158  0.23517193     0.10200
H1689       H  0.69298804  0.05330079  0.25326372     0.14800
H1690       H  0.75785364  0.45612518  0.26744194     0.00500
H1691       H  0.80620560  0.06349250  0.25356997     0.15100
H1692       H  0.74932274  0.50543712  0.20700149     0.14800
C1693       C  0.96927548  0.25398583  0.01312211     0.02400
C1694       C  0.96767819  0.25017251  0.99112497     0.02400
C1695       C  0.50211495  0.25308625  0.98040129    -0.18100
C1696       C  0.53702594  0.25496156  0.99045292     0.02400
C1697       C  0.53855054  0.26049765  0.01223796     0.02400
C1698       C  0.50484122  0.26101108  0.02367036    -0.18100
H1699       H  0.50605105  0.26252040  0.04059145     0.04400
H1700       H  0.50124436  0.24967965  0.96352107     0.04400
C1701       C  0.74286078  0.45676096  0.76615557     0.86600
C1702       C  0.70956567  0.46163680  0.75155223    -0.53600
C1703       C  0.71219604  0.99462926  0.74105858     0.09600
C1704       C  0.74986983  0.01741160  0.74462111     0.20500
C1705       C  0.77826438  0.45971917  0.75229425    -0.54300
C1706       C  0.78234350  0.99004994  0.74082111     0.09700
C1707       C  0.74584027  0.49319949  0.77939358    -0.53900
C1708       C  0.75125857  0.02501167  0.76836032     0.10200
H1709       H  0.68609982  0.44138745  0.75003079     0.14800
H1710       H  0.75158718  0.04286307  0.73522377     0.00500
H1711       H  0.79946672  0.43894897  0.75176161     0.15100
H1712       H  0.74933147  0.99441677  0.79663239     0.14800
C1713       C  0.50811659  0.29071640  0.73617553     0.86600
C1714       C  0.97326897  0.28709440  0.75245228    -0.53600
C1715       C  0.97260364  0.25599889  0.76423524     0.09600
C1716       C  0.50600329  0.23069596  0.75879628     0.20500
C1717       C  0.54239308  0.28744182  0.75048210    -0.54300
C1718       C  0.54254740  0.25583012  0.76194234     0.09700
C1719       C  0.50486373  0.25416555  0.72351841    -0.53900
C1720       C  0.50465391  0.22252571  0.73504614     0.10200
H1721       H  0.95069218  0.30642585  0.75379339     0.14800
H1722       H  0.50421058  0.20570148  0.76847693     0.00500
H1723       H  0.56391286  0.30946279  0.75186385     0.15100
H1724       H  0.50236431  0.25340150  0.70660808     0.14800
C1725       C  0.74699539  0.46687597  0.01342802     0.02400
C1726       C  0.74749112  0.46616644  0.99124336     0.02400
C1727       C  0.74453603  0.99933505  0.98065861    -0.18100
C1728       C  0.74422754  0.03380664  0.99125669     0.02400
C1729       C  0.74077335  0.03455423  0.01326735     0.02400
C1730       C  0.74186596  0.00095083  0.02404947    -0.18100
H1731       H  0.74251316  0.00173636  0.04098491     0.04400
H1732       H  0.74638374  0.99882886  0.96375558     0.04400
O1733       O  0.85776558  0.25582609  0.91488491    -0.75100
O1734       O  0.81042812  0.25214130  0.93915096    -0.54100
C1735       C  0.84523864  0.25592574  0.93376607     0.78600
O1736       O  0.74536676  0.34751464  0.84441011    -0.59700
O1737       O  0.74992005  0.30246481  0.81917549    -0.52800
C1738       C  0.74512695  0.33628833  0.82521311     0.70600
O1739       O  0.75227706  0.35099840  0.91460664    -0.74300
O1740       O  0.75253020  0.30556710  0.93883364    -0.54900
C1741       C  0.75205543  0.33986724  0.93358647     0.76600
O1742       O  0.86217225  0.25065975  0.84554827    -0.59400
O1743       O  0.81711358  0.24817834  0.82012246    -0.52600
C1744       C  0.85201539  0.25024358  0.82633648     0.73200
Zr1745     Zr  0.83258021  0.25018924  0.87962462     2.54700
O1746       O  0.87958783  0.30128127  0.88048195    -0.80000
O1747       O  0.87929369  0.20245170  0.88054274    -0.93400
Zr1748     Zr  0.75259831  0.32362898  0.87944980     2.64700
O1749       O  0.80201063  0.37264016  0.87867259    -0.98400
O1750       O  0.70216556  0.36739132  0.88292526    -0.80400
O1751       O  0.79287610  0.28807007  0.89983264    -0.83800
O1752       O  0.79394174  0.28741387  0.85897230    -2.18500
O1753       O  0.75017631  0.14166854  0.84276969    -0.67200
O1754       O  0.75502430  0.18708035  0.81833906    -0.51800
C1755       C  0.75142489  0.15289688  0.82373689     0.71600
O1756       O  0.64859169  0.24134184  0.91425738    -0.60100
O1757       O  0.69524326  0.24623699  0.93884120    -0.52100
C1758       C  0.66051737  0.24421729  0.93320993     0.73400
O1759       O  0.64756762  0.24036485  0.84430329    -0.71500
O1760       O  0.69424713  0.24126832  0.81972960    -0.50200
C1761       C  0.65898754  0.23996087  0.82525738     0.74800
O1762       O  0.75507132  0.14200193  0.91363308    -0.66800
O1763       O  0.75195973  0.18874326  0.93816935    -0.54000
C1764       C  0.75294550  0.15421400  0.93268927     0.73100
Zr1765     Zr  0.75506815  0.16803361  0.87844755     2.77500
O1766       O  0.70737763  0.11771600  0.88063270    -0.97600
O1767       O  0.80777004  0.12690770  0.87541455    -0.78400
Zr1768     Zr  0.67497850  0.24182083  0.87901836     2.70100
O1769       O  0.62763734  0.19097606  0.87927519    -0.79600
O1770       O  0.62883855  0.29019903  0.88000420    -0.98700
Zr1771     Zr  0.75316581  0.24671650  0.91924765     2.21500
Zr1772     Zr  0.75508316  0.24525650  0.83825562     2.11100
O1773       O  0.71503367  0.20459481  0.85844126    -2.47400
O1774       O  0.71405431  0.20451222  0.89904641    -0.79400
O1775       O  0.79501328  0.20833693  0.85852447    -0.71600
O1776       O  0.71296349  0.28364111  0.89945251    -2.32600
O1777       O  0.79421330  0.20867808  0.89944112    -2.28800
O1778       O  0.71389041  0.28243545  0.85872366    -0.73400
H1779       H  0.80939091  0.30349425  0.85024188     0.78600
H1780       H  0.69719282  0.29822489  0.90846931     0.79700
H1781       H  0.69928132  0.18870107  0.84951415     0.81900
H1782       H  0.80977446  0.19458654  0.90847928     0.79500
H1783       H  0.68133677  0.35374801  0.89018287     0.42600
H1784       H  0.63688593  0.30727108  0.86876430     0.41500
H1785       H  0.63902381  0.17174154  0.88779920     0.41200
H1786       H  0.68749204  0.12434451  0.87069769     0.39100
H1787       H  0.79705700  0.10233482  0.87953915     0.42300
H1788       H  0.87598407  0.19093294  0.89436899     0.37100
H1789       H  0.86467631  0.32383883  0.88200468     0.43200
H1790       H  0.80405881  0.37980530  0.86385919     0.39600
H1791       H  0.71932615  0.09598902  0.87407946     0.44500
H1792       H  0.90388419  0.21646165  0.88151181     0.43200
H1793       H  0.79070918  0.39419361  0.88579777     0.43400
H1794       H  0.60509888  0.27790062  0.87480447     0.43700
O1795       O  0.75152746  0.35797382  0.16169887    -0.75100
O1796       O  0.74409138  0.31241800  0.18586987    -0.54100
C1797       C  0.74786214  0.34664601  0.18062584     0.78600
O1798       O  0.64962299  0.25558713  0.08594864    -0.59700
O1799       O  0.69892729  0.25438278  0.06288452    -0.52800
C1800       C  0.66368265  0.25517138  0.06743183     0.70600
O1801       O  0.63797292  0.25647733  0.15509210    -0.74300
O1802       O  0.68089339  0.25366314  0.18121694    -0.54900
C1803       C  0.64649277  0.25476180  0.17447083     0.76600
O1804       O  0.75813404  0.35870971  0.09048457    -0.59400
O1805       O  0.75702949  0.31236371  0.06552144    -0.52600
C1806       C  0.75821615  0.34678365  0.07132509     0.73200
Zr1807     Zr  0.75345044  0.33298869  0.12574663     2.54700
O1808       O  0.70574147  0.37976886  0.12525292    -0.80000
O1809       O  0.80440341  0.38042389  0.12742028    -0.93400
Zr1810     Zr  0.67099790  0.25505135  0.12190190     2.64700
O1811       O  0.62201728  0.30042656  0.11965091    -0.98400
O1812       O  0.62712731  0.20145260  0.11921186    -0.80400
O1813       O  0.70890637  0.29476504  0.14413236    -0.83800
O1814       O  0.71404785  0.29464594  0.10370660    -2.18500
O1815       O  0.85875339  0.25201201  0.09275465    -0.67200
O1816       O  0.81447625  0.25338038  0.06695746    -0.51800
C1817       C  0.84857964  0.25152412  0.07343372     0.71600
O1818       O  0.74348540  0.15130687  0.15890894    -0.60100
O1819       O  0.74066377  0.19710199  0.18394193    -0.52100
C1820       C  0.74168714  0.16283751  0.17808538     0.73400
O1821       O  0.74443162  0.15090880  0.08822831    -0.71500
O1822       O  0.75325566  0.19651050  0.06424836    -0.50200
C1823       C  0.74828676  0.16225979  0.06935037     0.74800
O1824       O  0.85065522  0.24745254  0.16246511    -0.66800
O1825       O  0.80222119  0.24995567  0.18609716    -0.54000
C1826       C  0.83736492  0.24623322  0.18114920     0.73100
Zr1827     Zr  0.82824391  0.25491624  0.12712480     2.77500
O1828       O  0.87738933  0.20993784  0.12979562    -0.97600
O1829       O  0.87333976  0.30752567  0.13036703    -0.78400
Zr1830     Zr  0.74573336  0.17701049  0.12382646     2.70100
O1831       O  0.79543082  0.13222410  0.12343576    -0.79600
O1832       O  0.69483820  0.12950437  0.12272350    -0.98700
Zr1833     Zr  0.74428118  0.25497529  0.16530558     2.21500
Zr1834     Zr  0.75438614  0.25467697  0.08453328     2.11100
O1835       O  0.79013035  0.21489396  0.10535626    -2.47400
O1836       O  0.78465239  0.21602400  0.14562398    -0.79400
O1837       O  0.79404708  0.29473903  0.10590296    -0.71600
O1838       O  0.70514689  0.21550104  0.14333707    -2.32600
O1839       O  0.78901103  0.29417007  0.14709266    -2.28800
O1840       O  0.71011701  0.21542562  0.10243284    -0.73400
H1841       H  0.70020535  0.30998394  0.09446361     0.78600
H1842       H  0.68781584  0.20027163  0.15149299     0.79700
H1843       H  0.80569592  0.19926697  0.09679293     0.81900
H1844       H  0.80441264  0.30893023  0.15681597     0.79500
H1845       H  0.60609242  0.20974190  0.11052900     0.42600
H1846       H  0.68023212  0.13354301  0.13573017     0.41500
H1847       H  0.80972636  0.13755357  0.13649576     0.41200
H1848       H  0.86726354  0.18746834  0.12226293     0.39100
H1849       H  0.87272547  0.31962146  0.11663298     0.42300
H1850       H  0.82087106  0.37278167  0.13890259     0.37100
H1851       H  0.68151908  0.36565577  0.12741164     0.43200
H1852       H  0.63091690  0.31768598  0.10868026     0.39600
H1853       H  0.89863233  0.21953123  0.12109550     0.44500
H1854       H  0.79231631  0.40292203  0.13294720     0.43200
H1855       H  0.60009570  0.28653110  0.11330225     0.43400
H1856       H  0.67793816  0.13730616  0.11147014     0.43700
O1857       O  0.60502571  0.50553506  0.65796316    -0.75100
O1858       O  0.56035382  0.50809676  0.68366967    -0.54100
C1859       C  0.59496889  0.00631585  0.67725665     0.78600
O1860       O  0.99518333  0.10276125  0.58808042    -0.59700
O1861       O  0.99418808  0.05531953  0.56387188    -0.52800
C1862       C  0.99379061  0.08989190  0.56915887     0.70600
O1863       O  0.99647688  0.10820804  0.65872715    -0.74300
O1864       O  0.00072378  0.06427336  0.68369695    -0.54900
C1865       C  0.99761260  0.09798053  0.67790375     0.76600
O1866       O  0.60071230  0.00884440  0.58718096    -0.59400
O1867       O  0.55289708  0.00307608  0.56338882    -0.52600
C1868       C  0.58779926  0.00650132  0.56837780     0.73200
Zr1869     Zr  0.57580120  0.50688721  0.62358424     2.54700
O1870       O  0.62968914  0.04979632  0.62429487    -0.80000
O1871       O  0.61683428  0.45527013  0.61708912    -0.93400
Zr1872     Zr  0.00034624  0.07997429  0.62359636     2.64700
O1873       O  0.54729148  0.12951693  0.62392980    -0.98400
O1874       O  0.95730278  0.13060812  0.62110538    -0.80400
O1875       O  0.53880356  0.04464334  0.64359668    -0.83800
O1876       O  0.53728627  0.04251578  0.60303233    -2.18500
O1877       O  0.99567180  0.39388261  0.59123410    -0.67200
O1878       O  0.99435617  0.43761229  0.56594885    -0.51800
C1879       C  0.99598883  0.40382021  0.57204299     0.71600
O1880       O  0.89035495  0.50045320  0.66041816    -0.60100
O1881       O  0.93738463  0.50509981  0.68465603    -0.52100
C1882       C  0.90207630  0.50368815  0.67936418     0.73400
O1883       O  0.89169930  0.00411792  0.58956371    -0.71500
O1884       O  0.93723727  0.99769990  0.56456213    -0.50200
C1885       C  0.90121552  0.49841896  0.57107875     0.74800
O1886       O  0.99721407  0.40158258  0.66111527    -0.66800
O1887       O  0.99855465  0.44880606  0.68532433    -0.54000
C1888       C  0.99891065  0.41426378  0.68003868     0.73100
Zr1889     Zr  0.99316256  0.42385659  0.62562008     2.77500
O1890       O  0.93864332  0.38044367  0.62670061    -0.97600
O1891       O  0.54006581  0.37901701  0.62736942    -0.78400
Zr1892     Zr  0.91659590  0.50022572  0.62531950     2.70100
O1893       O  0.86533943  0.45312727  0.62531995    -0.79600
O1894       O  0.87282822  0.05082256  0.62656730    -0.98700
Zr1895     Zr  0.99730501  0.50458110  0.66500067     2.21500
Zr1896     Zr  0.99525699  0.99903735  0.58387325     2.11100
O1897       O  0.95331141  0.45943362  0.60499476    -2.47400
O1898       O  0.95501617  0.46306591  0.64611546    -0.79400
O1899       O  0.53505879  0.46497695  0.60468650    -0.71600
O1900       O  0.95948400  0.04264236  0.64452800    -2.32600
O1901       O  0.53687682  0.46820049  0.64500675    -2.28800
O1902       O  0.95807790  0.04018545  0.60401147    -0.73400
H1903       H  0.55246235  0.05816736  0.59394136     0.78600
H1904       H  0.94431177  0.05817211  0.65338437     0.79700
H1905       H  0.93714075  0.44323448  0.59640310     0.81900
H1906       H  0.55261770  0.45358163  0.65365000     0.79500
H1907       H  0.97398404  0.15315076  0.61974556     0.42600
H1908       H  0.88503103  0.07173861  0.61896104     0.41500
H1909       H  0.84227096  0.46699194  0.62276310     0.41200
H1910       H  0.94050630  0.36793298  0.64025910     0.39100
H1911       H  0.56080244  0.38941674  0.63632987     0.42300
H1912       H  0.61465591  0.43992148  0.62968378     0.37100
H1913       H  0.62128156  0.07106312  0.61620695     0.43200
H1914       H  0.57046400  0.11690767  0.62789847     0.39600
H1915       H  0.91662660  0.39634103  0.62836221     0.44500
H1916       H  0.64285370  0.46636212  0.61734804     0.43200
H1917       H  0.55137855  0.13594181  0.60911459     0.43400
H1918       H  0.85156008  0.04183899  0.61756230     0.43700
O1919       O  0.99829400  0.08919159  0.34218473    -0.75100
O1920       O  0.99761768  0.04161213  0.31810601    -0.54100
C1921       C  0.99799917  0.07629643  0.32330031     0.78600
O1922       O  0.60364464  0.49395254  0.41245623    -0.59700
O1923       O  0.55698297  0.49716735  0.43714038    -0.52800
C1924       C  0.58804103  0.99347426  0.43306073     0.70600
O1925       O  0.60389695  0.49129822  0.34200106    -0.74300
O1926       O  0.55722072  0.48543375  0.31777051    -0.54900
C1927       C  0.59015871  0.99189811  0.32390454     0.76600
O1928       O  0.99628640  0.09588032  0.41206871    -0.59400
O1929       O  0.99605910  0.05210036  0.43734237    -0.52600
C1930       C  0.50018634  0.09091821  0.43171628     0.73200
Zr1931     Zr  0.99676850  0.06612874  0.37755743     2.54700
O1932       O  0.54739940  0.12145484  0.37668439    -0.80000
O1933       O  0.94519106  0.10861212  0.37589911    -0.93400
Zr1934     Zr  0.57738794  0.49350410  0.37730707     2.64700
O1935       O  0.62211032  0.04629392  0.37962681    -0.98400
O1936       O  0.62472827  0.44630079  0.37753550    -0.80400
O1937       O  0.53733853  0.03216519  0.35776720    -0.83800
O1938       O  0.53780466  0.03546573  0.39857113    -2.18500
O1939       O  0.89122169  0.48676627  0.41338379    -0.67200
O1940       O  0.93805729  0.98779634  0.43778671    -0.51800
C1941       C  0.90293903  0.48790916  0.43239323     0.71600
O1942       O  0.98895860  0.38224875  0.34525092    -0.60100
O1943       O  0.99248578  0.42590991  0.31997280    -0.52100
C1944       C  0.98874291  0.39214440  0.32604875     0.73400
O1945       O  0.99772258  0.38849515  0.41556311    -0.71500
O1946       O  0.99550497  0.43640702  0.43943701    -0.50200
C1947       C  0.99640525  0.40166281  0.43439578     0.74800
O1948       O  0.89192880  0.48968061  0.34325643    -0.66800
O1949       O  0.93890805  0.48623108  0.31880403    -0.54000
C1950       C  0.90409757  0.48892052  0.32428150     0.73100
Zr1951     Zr  0.91804248  0.48664171  0.37833940     2.77500
O1952       O  0.87191775  0.43467358  0.37678716    -0.97600
O1953       O  0.87075634  0.03109430  0.37976146    -0.78400
Zr1954     Zr  0.99628161  0.41124267  0.37988053     2.70100
O1955       O  0.94721551  0.36275694  0.38398087    -0.79600
O1956       O  0.54980901  0.37054195  0.37776517    -0.98700
Zr1957     Zr  0.99776735  0.48548423  0.33819324     2.21500
Zr1958     Zr  0.99648582  0.49269612  0.41885845     2.11100
O1959       O  0.95639572  0.45018089  0.39934199    -2.47400
O1960       O  0.95676581  0.44653821  0.35868241    -0.79400
O1961       O  0.95646154  0.02797205  0.39848636    -0.71600
O1962       O  0.53812468  0.45081247  0.35787153    -2.32600
O1963       O  0.95729483  0.02432178  0.35786807    -2.28800
O1964       O  0.53853288  0.45471785  0.39864957    -0.73400
H1965       H  0.55391150  0.05124598  0.40740618     0.78600
H1966       H  0.55314693  0.43515108  0.34899776     0.79700
H1967       H  0.94079222  0.43502290  0.40846318     0.81900
H1968       H  0.94186749  0.03859963  0.34886217     0.79500
H1969       H  0.61872718  0.43001306  0.36525128     0.42600
H1970       H  0.56757108  0.37990167  0.38875849     0.41500
H1971       H  0.92343001  0.37488100  0.38065409     0.41200
H1972       H  0.84737383  0.44628810  0.37467278     0.39100
H1973       H  0.88064626  0.05093216  0.37051200     0.42300
H1974       H  0.95768087  0.13361925  0.37725985     0.37100
H1975       H  0.56468925  0.11388098  0.36533066     0.43200
H1976       H  0.61075122  0.06595910  0.37142677     0.39600
H1977       H  0.87703435  0.42171541  0.36334856     0.44500
H1978       H  0.93124996  0.10526578  0.38920406     0.43200
H1979       H  0.62173536  0.05587059  0.39422817     0.43400
H1980       H  0.53878820  0.34702550  0.38328480     0.43700
C1981       C  0.49323970  0.28278463  0.51437475     0.02400
C1982       C  0.49587945  0.28363257  0.49231441     0.02400
C1983       C  0.49417165  0.25001995  0.48077467    -0.18100
C1984       C  0.49098472  0.21530630  0.49044327     0.02400
C1985       C  0.48909436  0.21435717  0.51260256     0.02400
C1986       C  0.49123125  0.24816660  0.52410316    -0.18100
H1987       H  0.49067812  0.24754083  0.54102893     0.04400
H1988       H  0.49575047  0.25092570  0.46386428     0.04400
C1989       C  0.77958037  0.49180820  0.51245444     0.02400
C1990       C  0.78036487  0.49470076  0.49054017     0.02400
C1991       C  0.74646221  0.49636148  0.47964418    -0.18100
C1992       C  0.71198389  0.49593680  0.49017716     0.02400
C1993       C  0.71131536  0.49661272  0.51213204     0.02400
C1994       C  0.74497750  0.49264062  0.52298328    -0.18100
H1995       H  0.74441029  0.49124936  0.53988589     0.04400
H1996       H  0.74681892  0.49697321  0.46269734     0.04400
C1997       C  0.49846975  0.20217689  0.26425894     0.86600
C1998       C  0.96253299  0.20181824  0.25116663    -0.53600
C1999       C  0.96011772  0.23372483  0.24017460     0.09600
C2000       C  0.49431716  0.26358320  0.24305302     0.20500
C2001       C  0.53086407  0.20871596  0.24882668    -0.54300
C2002       C  0.52977595  0.24101347  0.23828558     0.09700
C2003       C  0.49671250  0.23775381  0.27767599    -0.53900
C2004       C  0.49486591  0.27026295  0.26698273     0.10200
H2005       H  0.93980291  0.18097007  0.25003063     0.14800
H2006       H  0.49259964  0.28847404  0.23345955     0.00500
H2007       H  0.55207146  0.18850542  0.24551359     0.15100
H2008       H  0.49517568  0.23687506  0.29459920     0.14800
C2009       C  0.50772589  0.36863128  0.29078463    -0.05600
C2010       C  0.98522074  0.36248167  0.30968506     0.00300
C2011       C  0.96041537  0.33088083  0.31151695    -0.08300
C2012       C  0.96198500  0.30257704  0.29625258    -0.05700
C2013       C  0.98768532  0.30412013  0.27944394     0.00300
C2014       C  0.50897169  0.34039993  0.27522545    -0.08200
C2015       C  0.53133115  0.34834715  0.25543281     0.62200
H2016       H  0.52426921  0.39428123  0.28893665     0.12900
H2017       H  0.94429055  0.27765505  0.29805710     0.12900
C2018       C  0.93299835  0.32599790  0.32966337     0.62400
F2019       F  0.55239864  0.38150113  0.25697289    -0.22700
F2020       F  0.01289509  0.34772249  0.23992044    -0.20100
F2021       F  0.55609059  0.32069304  0.25129194    -0.19700
F2022       F  0.91353684  0.35806585  0.33307076    -0.19800
F2023       F  0.95267631  0.31777291  0.34746644    -0.20100
F2024       F  0.90655932  0.29728351  0.32587884    -0.22800
C2025       C  0.53015701  0.13554702  0.30723979    -0.05600
C2026       C  0.99967500  0.10426290  0.30670528     0.00300
C2027       C  0.97408666  0.10443873  0.28989444    -0.08300
C2028       C  0.97633092  0.13432495  0.27606254    -0.05700
C2029       C  0.50325085  0.16733392  0.27766718     0.00300
C2030       C  0.53288877  0.16453151  0.29288107    -0.08200
C2031       C  0.56863708  0.18983781  0.29408576     0.62200
H2032       H  0.55077185  0.13386675  0.31961337     0.12900
H2033       H  0.95754038  0.13288226  0.26295763     0.12900
C2034       C  0.94282070  0.07460314  0.28741861     0.62400
F2035       F  0.59305718  0.17936904  0.30955940    -0.22700
F2036       F  0.56044537  0.22617297  0.29852104    -0.20100
F2037       F  0.58845516  0.18756333  0.27560513    -0.19700
F2038       F  0.92153246  0.07343521  0.30553061    -0.19800
F2039       F  0.95811679  0.04040721  0.28367138    -0.20100
F2040       F  0.91883525  0.08144177  0.27102002    -0.22800
C2041       C  0.96585687  0.11856472  0.46064721    -0.05600
C2042       C  0.50083210  0.12077924  0.44800370     0.00300
C2043       C  0.52961375  0.14937353  0.44949286    -0.08300
C2044       C  0.52547281  0.17836037  0.46424059    -0.05700
C2045       C  0.49289052  0.18137147  0.47664740     0.00300
C2046       C  0.96098897  0.14950782  0.47410965    -0.08200
C2047       C  0.92286248  0.15241526  0.48472683     0.62200
H2048       H  0.94344918  0.09721564  0.45936879     0.12900
H2049       H  0.54780298  0.19977252  0.46569173     0.12900
C2050       C  0.56528130  0.15152304  0.43622902     0.62400
F2051       F  0.89430105  0.14125066  0.47099338    -0.22700
F2052       F  0.91590422  0.18828828  0.49108606    -0.20100
F2053       F  0.92124275  0.12947145  0.50175835    -0.19700
F2054       F  0.56596096  0.18403204  0.42509014    -0.19800
F2055       F  0.56834053  0.12228099  0.42220390    -0.20100
F2056       F  0.59654057  0.15217206  0.44916537    -0.22800
C2057       C  0.53346298  0.36448921  0.45947475    -0.05600
C2058       C  0.99526388  0.37416429  0.45124799     0.00300
C2059       C  0.96111719  0.35520438  0.45686479    -0.08300
C2060       C  0.96226315  0.32544461  0.47061009    -0.05700
C2061       C  0.49852682  0.31851294  0.48026797     0.00300
C2062       C  0.53354602  0.33542822  0.47401421    -0.08200
C2063       C  0.57068786  0.32174638  0.48202556     0.62200
H2064       H  0.55984331  0.37741483  0.45418052     0.12900
H2065       H  0.93656834  0.30957371  0.47420929     0.12900
C2066       C  0.92361751  0.36647315  0.44830143     0.62400
F2067       F  0.57281202  0.32769700  0.50336118    -0.22700
F2068       F  0.60147867  0.34002056  0.47292962    -0.20100
F2069       F  0.57316231  0.28419206  0.47761911    -0.19700
F2070       F  0.92365310  0.36299369  0.42677279    -0.19800
F2071       F  0.91811438  0.40299166  0.45412690    -0.20100
F2072       F  0.89368374  0.34470630  0.45585290    -0.22800
C2073       C  0.64072092  0.46375314  0.44963226    -0.05600
C2074       C  0.61993685  0.49566147  0.44794508     0.00300
C2075       C  0.62445869  0.02304837  0.46316680    -0.08300
C2076       C  0.65541983  0.02169790  0.47664865    -0.05700
C2077       C  0.67762844  0.49323089  0.47749072     0.00300
C2078       C  0.66915390  0.46158923  0.46456236    -0.08200
C2079       C  0.68947691  0.42529332  0.46550944     0.62200
H2080       H  0.63454164  0.44019603  0.43919798     0.12900
H2081       H  0.66378442  0.04571869  0.48623929     0.12900
C2082       C  0.60192172  0.05786485  0.46249791     0.62400
F2083       F  0.66306208  0.39605975  0.46657071    -0.22700
F2084       F  0.71287183  0.42324459  0.48264875    -0.20100
F2085       F  0.71938314  0.92278477  0.45598275    -0.19700
F2086       F  0.56849659  0.55570576  0.46443289    -0.19800
F2087       F  0.60211237  0.07084953  0.44237596    -0.20100
F2088       F  0.61688039  0.08580334  0.47553636    -0.22800
C2089       C  0.87315262  0.01225736  0.46237716    -0.05600
C2090       C  0.87412645  0.48639445  0.44887169     0.00300
C2091       C  0.84525123  0.45796997  0.44969697    -0.08300
C2092       C  0.81696217  0.46114985  0.46475976    -0.05700
C2093       C  0.81504703  0.49238803  0.47800464     0.00300
C2094       C  0.84203431  0.01739477  0.47553201    -0.08200
C2095       C  0.83746193  0.05643775  0.48424618     0.62200
H2096       H  0.89428039  0.03472590  0.46088680     0.12900
H2097       H  0.79469537  0.43960341  0.46551856     0.12900
C2098       C  0.84147956  0.42419398  0.43512798     0.62400
F2099       F  0.84025087  0.08111417  0.46799839    -0.22700
F2100       F  0.86603395  0.06507891  0.49840103    -0.20100
F2101       F  0.80298761  0.06149584  0.49378137    -0.19700
F2102       F  0.83707344  0.39250405  0.44686363    -0.19800
F2103       F  0.87214183  0.41982392  0.42212477    -0.20100
F2104       F  0.80959948  0.42708067  0.42292440    -0.22800
C2105       C  0.64672407  0.47603788  0.52284692    -0.05600
C2106       C  0.67658852  0.50261732  0.52430547     0.00300
C2107       C  0.67335024  0.03628217  0.53746805    -0.08300
C2108       C  0.64343685  0.03591220  0.55178435    -0.05700
C2109       C  0.61540566  0.00743694  0.55133391     0.00300
C2110       C  0.61501704  0.47802312  0.53597252    -0.08200
C2111       C  0.58223899  0.44999963  0.53311790     0.62200
H2112       H  0.64886021  0.45327670  0.51165640     0.12900
H2113       H  0.64185784  0.05802303  0.56347005     0.12900
C2114       C  0.70108038  0.06954938  0.53786363     0.62400
F2115       F  0.58918552  0.42386942  0.51756470    -0.22700
F2116       F  0.55135642  0.96588538  0.52777878    -0.20100
F2117       F  0.57573641  0.43149521  0.55148649    -0.19700
F2118       F  0.71865574  0.07432607  0.51872368    -0.19800
F2119       F  0.73321939  0.55686944  0.55141716    -0.20100
F2120       F  0.68235941  0.10171651  0.54253418    -0.22800
C2121       C  0.86767941  0.46658114  0.54187385    -0.05600
C2122       C  0.87256110  0.49845550  0.55465739     0.00300
C2123       C  0.85416453  0.03269406  0.54934636    -0.08300
C2124       C  0.82427822  0.02903639  0.53512474    -0.05700
C2125       C  0.81395527  0.49306492  0.52529539     0.00300
C2126       C  0.83743922  0.46254562  0.52778336    -0.08200
C2127       C  0.83057780  0.42454607  0.51751135     0.62200
H2128       H  0.88598899  0.44353535  0.54403580     0.12900
H2129       H  0.80728553  0.05269737  0.53219462     0.12900
C2130       C  0.86427630  0.07033894  0.55924724     0.62400
F2131       F  0.86002772  0.41737550  0.50396310    -0.22700
F2132       F  0.79702017  0.42112547  0.50658058    -0.20100
F2133       F  0.82725977  0.89873304  0.53577500    -0.19700
F2134       F  0.89194837  0.57693312  0.56449668    -0.19800
F2135       F  0.85391492  0.07047999  0.58004929    -0.20100
F2136       F  0.84609046  0.09859611  0.54953780    -0.22800
C2137       C  0.51529282  0.15348336  0.52191534    -0.05600
C2138       C  0.48658343  0.17918411  0.52459572     0.00300
C2139       C  0.95720561  0.17113984  0.54042078    -0.08300
C2140       C  0.96157226  0.14255467  0.55459366    -0.05700
C2141       C  0.49288487  0.11914958  0.55222477     0.00300
C2142       C  0.51844626  0.12291429  0.53521842    -0.08200
C2143       C  0.54987651  0.09597143  0.53174822     0.62200
H2144       H  0.53620813  0.15834321  0.50980604     0.12900
H2145       H  0.94188459  0.13978106  0.56755007     0.12900
C2146       C  0.92309548  0.19493560  0.54394507     0.62400
F2147       F  0.57325156  0.10626227  0.51529623    -0.22700
F2148       F  0.53446684  0.06090316  0.52718194    -0.20100
F2149       F  0.57179157  0.09469345  0.54954432    -0.19700
F2150       F  0.89086263  0.17211068  0.54542346    -0.19800
F2151       F  0.91721284  0.21940863  0.52811753    -0.20100
F2152       F  0.92761754  0.21496429  0.56249217    -0.22800
C2153       C  0.52536234  0.32225255  0.54144888    -0.05600
C2154       C  0.49416448  0.31684216  0.52807409     0.00300
C2155       C  0.96191758  0.33659365  0.52943507    -0.08300
C2156       C  0.96592539  0.36800249  0.54286171    -0.05700
C2157       C  0.99750965  0.37380795  0.55593384     0.00300
C2158       C  0.52831658  0.35193910  0.55601855    -0.08200
C2159       C  0.56219612  0.35258026  0.57064179     0.62200
H2160       H  0.54746093  0.30224519  0.54086306     0.12900
H2161       H  0.94257838  0.38647058  0.54450639     0.12900
C2162       C  0.92294114  0.32826961  0.52020873     0.62400
F2163       F  0.55840724  0.32278517  0.58387169    -0.22700
F2164       F  0.56645224  0.38467676  0.58268374    -0.20100
F2165       F  0.59498472  0.34912879  0.55905837    -0.19700
F2166       F  0.89608691  0.32998023  0.53593563    -0.19800
F2167       F  0.91916209  0.29336860  0.51096516    -0.20100
F2168       F  0.91528540  0.35461325  0.50559516    -0.22800
C2169       C  0.62474059  0.25817702  0.21135641    -0.05600
C2170       C  0.61472481  0.25403788  0.19019851     0.00300
C2171       C  0.57535854  0.24861643  0.18515668    -0.08300
C2172       C  0.54853458  0.24768500  0.20152965    -0.05700
C2173       C  0.55920393  0.25055010  0.22250061     0.00300
C2174       C  0.59804245  0.25641012  0.22755288    -0.08200
C2175       C  0.61370941  0.26084001  0.24954428     0.62200
H2176       H  0.65424561  0.26223949  0.21556544     0.12900
H2177       H  0.51876489  0.24266540  0.19817053     0.12900
C2178       C  0.56089131  0.24205137  0.16297336     0.62400
F2179       F  0.63747237  0.23215743  0.25324084    -0.22700
F2180       F  0.58618019  0.26096127  0.26479626    -0.20100
F2181       F  0.63444756  0.29411993  0.25129087    -0.19700
F2182       F  0.57751346  0.21140060  0.15412682    -0.19800
F2183       F  0.56889809  0.27305885  0.15117533    -0.20100
F2184       F  0.52209668  0.23526452  0.16231738    -0.22800
C2185       C  0.92364603  0.21261018  0.20908577    -0.05600
C2186       C  0.92801663  0.23876744  0.22546821     0.00300
C2187       C  0.89950320  0.26503330  0.22872642    -0.08300
C2188       C  0.86921097  0.26577494  0.21439714    -0.05700
C2189       C  0.86553470  0.23999801  0.19773693     0.00300
C2190       C  0.89218093  0.21164647  0.19576785    -0.08200
C2191       C  0.88827364  0.17876781  0.18059590     0.62200
H2192       H  0.94451083  0.19153905  0.20717610     0.12900
H2193       H  0.84851086  0.28701997  0.21585301     0.12900
C2194       C  0.90003116  0.29122644  0.24753204     0.62400
F2195       F  0.89257635  0.14629669  0.19135441    -0.22700
F2196       F  0.91635926  0.18167405  0.16559049    -0.20100
F2197       F  0.85344938  0.17583245  0.17087360    -0.19700
F2198       F  0.93060010  0.31608774  0.24629098    -0.19800
F2199       F  0.90230692  0.27099117  0.26554236    -0.20100
F2200       F  0.86757458  0.31139664  0.24883508    -0.22800
C2201       C  0.71189030  0.11169412  0.05100036    -0.05600
C2202       C  0.74568085  0.13323600  0.05254760     0.00300
C2203       C  0.77685264  0.12392854  0.03979451    -0.08300
C2204       C  0.77348791  0.09248046  0.02641414    -0.05700
C2205       C  0.74027065  0.06997846  0.02562095     0.00300
C2206       C  0.70846082  0.08021033  0.03764897    -0.08200
C2207       C  0.67116122  0.05787247  0.03664399     0.62200
H2208       H  0.68846405  0.11907437  0.06096193     0.12900
H2209       H  0.79743217  0.08417429  0.01712361     0.12900
C2210       C  0.81439865  0.14519899  0.04161557     0.62400
F2211       F  0.64291882  0.07527671  0.04766143    -0.22700
F2212       F  0.67523802  0.02335955  0.04512660    -0.20100
F2213       F  0.65951895  0.05344015  0.01612837    -0.19700
F2214       F  0.82651635  0.14398352  0.06202104    -0.19800
F2215       F  0.81042388  0.18169102  0.03606400    -0.20100
F2216       F  0.84183836  0.13012314  0.02890975    -0.22800
C2217       C  0.72436680  0.37751118  0.04320801    -0.05600
C2218       C  0.75769071  0.37485678  0.05477437     0.00300
C2219       C  0.78839591  0.40024489  0.05122126    -0.08300
C2220       C  0.78398748  0.42870758  0.03679435    -0.05700
C2221       C  0.74966731  0.43307591  0.02627474     0.00300
C2222       C  0.71904593  0.40722802  0.02972224    -0.08200
C2223       C  0.67963936  0.41070399  0.02094671     0.62200
H2224       H  0.70111121  0.35766252  0.04595798     0.12900
H2225       H  0.80700366  0.44882960  0.03419033     0.12900
C2226       C  0.82541678  0.39762892  0.06284011     0.62400
F2227       F  0.67259045  0.38280951  0.00616490    -0.22700
F2228       F  0.67442748  0.44454296  0.01198058    -0.20100
F2229       F  0.65341173  0.40691885  0.03691342    -0.19700
F2230       F  0.83682841  0.36137691  0.06236211    -0.19800
F2231       F  0.82071234  0.40915983  0.08337267    -0.20100
F2232       F  0.85391284  0.41962980  0.05399653    -0.22800
C2233       C  0.71943770  0.09240307  0.97741318    -0.05600
C2234       C  0.74934218  0.06810901  0.97868540     0.00300
C2235       C  0.78206418  0.07460435  0.96620103    -0.08300
C2236       C  0.78195127  0.10264983  0.95121136    -0.05700
C2237       C  0.75160676  0.12627009  0.94947469     0.00300
C2238       C  0.72025695  0.12188745  0.96321010    -0.08200
C2239       C  0.68704424  0.14714201  0.96215439     0.62200
H2240       H  0.69483938  0.08734324  0.98714506     0.12900
H2241       H  0.80600996  0.10645371  0.94084047     0.12900
C2242       C  0.81708170  0.05179654  0.96795029     0.62400
F2243       F  0.65841618  0.13658912  0.97582700    -0.22700
F2244       F  0.67238837  0.14607287  0.94213734    -0.20100
F2245       F  0.69879054  0.18315432  0.96739169    -0.19700
F2246       F  0.81549238  0.02329180  0.95316572    -0.19800
F2247       F  0.82046353  0.03690502  0.98757547    -0.20100
F2248       F  0.84930988  0.07385309  0.96449508    -0.22800
C2249       C  0.77176646  0.40397271  0.98112466    -0.05600
C2250       C  0.74476005  0.43101602  0.97833969     0.00300
C2251       C  0.71806610  0.42564240  0.96186872    -0.08300
C2252       C  0.72213547  0.39591879  0.94760486    -0.05700
C2253       C  0.74935544  0.36920322  0.95020914     0.00300
C2254       C  0.77350751  0.37228761  0.96783023    -0.08200
C2255       C  0.80215935  0.34332113  0.97206166     0.62200
H2256       H  0.79233212  0.40837416  0.99346818     0.12900
H2257       H  0.70292119  0.39293918  0.93445323     0.12900
C2258       C  0.68440486  0.44975423  0.95854959     0.62400
F2259       F  0.82360205  0.35245381  0.98956141    -0.22700
F2260       F  0.82615823  0.34040407  0.95516486    -0.20100
F2261       F  0.78394887  0.30931024  0.97540443    -0.19700
F2262       F  0.69016034  0.47020183  0.94070377    -0.19800
F2263       F  0.67776518  0.47382664  0.97507246    -0.20100
F2264       F  0.65212687  0.42718677  0.95596511    -0.22800
C2265       C  0.96995142  0.18351848  0.70920447    -0.05600
C2266       C  0.99742309  0.18527626  0.72503686     0.00300
C2267       C  0.52368758  0.15549327  0.72603936    -0.08300
C2268       C  0.52131617  0.12666839  0.71077907    -0.05700
C2269       C  0.99511528  0.12708669  0.69454447     0.00300
C2270       C  0.96798378  0.15485108  0.69409983    -0.08200
C2271       C  0.93715082  0.15491036  0.67772025     0.62200
H2272       H  0.95085756  0.20612127  0.70808477     0.12900
H2273       H  0.54093014  0.10437322  0.71104396     0.12900
C2274       C  0.55292827  0.15361419  0.74323311     0.62400
F2275       F  0.90879385  0.17856705  0.68336009    -0.22700
F2276       F  0.92074590  0.11965164  0.67514084    -0.20100
F2277       F  0.95243326  0.16670497  0.65903241    -0.19700
F2278       F  0.53515323  0.15053635  0.76237020    -0.19800
F2279       F  0.57637165  0.18493261  0.74328193    -0.20100
F2280       F  0.57537513  0.12322993  0.74066821    -0.22800
C2281       C  0.98869232  0.35667177  0.72922726    -0.05600
C2282       C  0.00992052  0.32552701  0.72360009     0.00300
C2283       C  0.03256382  0.32803476  0.70501165    -0.08300
C2284       C  0.02769126  0.35770161  0.69165063    -0.05700
C2285       C  0.00354687  0.38640397  0.69639463     0.00300
C2286       C  0.98443278  0.38668537  0.71579103    -0.08200
C2287       C  0.95783232  0.41716078  0.72177000     0.62200
H2288       H  0.97524705  0.35790642  0.74431433     0.12900
H2289       H  0.04341407  0.35856053  0.67706487     0.12900
C2290       C  0.56364156  0.30350102  0.69634304     0.62400
F2291       F  0.93916356  0.41001309  0.74036312    -0.22700
F2292       F  0.93091412  0.41989472  0.70631808    -0.20100
F2293       F  0.47943413  0.45101716  0.72528506    -0.19700
F2294       F  0.04816570  0.28171938  0.67999439    -0.19800
F2295       F  0.57153544  0.27597487  0.70981130    -0.20100
F2296       F  0.59709592  0.32386520  0.69313204    -0.22800
C2297       C  0.56428420  0.23171598  0.79589947    -0.05600
C2298       C  0.57411408  0.24783683  0.77676692     0.00300
C2299       C  0.61330072  0.25618359  0.77273137    -0.08300
C2300       C  0.63949082  0.25363143  0.78906193    -0.05700
C2301       C  0.62932107  0.23936072  0.80856636     0.00300
C2302       C  0.59132482  0.22563059  0.81147861    -0.08200
C2303       C  0.57893595  0.20354709  0.83045443     0.62200
H2304       H  0.53483845  0.22445397  0.79889812     0.12900
H2305       H  0.66858442  0.26294868  0.78647931     0.12900
C2306       C  0.62932439  0.26538090  0.75132189     0.62400
F2307       F  0.54415501  0.18531401  0.82732746    -0.22700
F2308       F  0.57579153  0.22694716  0.84768105    -0.20100
F2309       F  0.60484337  0.17682846  0.83440158    -0.19700
F2310       F  0.62866811  0.30307956  0.74799914    -0.19800
F2311       F  0.60940303  0.24614807  0.73592858    -0.20100
F2312       F  0.66647633  0.25496973  0.74949960    -0.22800
C2313       C  0.94578496  0.27366726  0.79838108    -0.05600
C2314       C  0.94303475  0.25039022  0.78067175     0.00300
C2315       C  0.91003299  0.22732445  0.77772598    -0.08300
C2316       C  0.88068118  0.22848029  0.79275557    -0.05700
C2317       C  0.88337338  0.25185363  0.81057762     0.00300
C2318       C  0.91672303  0.27502056  0.81341206    -0.08200
C2319       C  0.92209150  0.30166860  0.83197488     0.62200
H2320       H  0.97109886  0.29135230  0.80017933     0.12900
H2321       H  0.85549110  0.21069217  0.79083120     0.12900
C2322       C  0.90568987  0.20197472  0.75867979     0.62400
F2323       F  0.95163197  0.32733664  0.82880783    -0.22700
F2324       F  0.93035066  0.28188323  0.84953773    -0.20100
F2325       F  0.88975049  0.32127861  0.83537265    -0.19700
F2326       F  0.93359133  0.17621915  0.75869009    -0.19800
F2327       F  0.90867644  0.22263940  0.74077051    -0.20100
F2328       F  0.87095011  0.18297869  0.75836060    -0.22800
C2329       C  0.80912286  0.01463391  0.70765633    -0.05600
C2330       C  0.81501874  0.49983041  0.72721848     0.00300
C2331       C  0.85289386  0.49087791  0.73199147    -0.08300
C2332       C  0.88029315  0.49229114  0.71597345    -0.05700
C2333       C  0.87236675  0.50551953  0.69605712     0.00300
C2334       C  0.83743390  0.01955093  0.69228212    -0.08200
C2335       C  0.82777992  0.03990849  0.67258567     0.62200
H2336       H  0.78071667  0.02286988  0.70438183     0.12900
H2337       H  0.90850818  0.48351429  0.71926674     0.12900
C2338       C  0.86680699  0.48101102  0.75357980     0.62400
F2339       F  0.79463122  0.05873549  0.67479485    -0.22700
F2340       F  0.81911243  0.51710056  0.65677667    -0.20100
F2341       F  0.85633447  0.06588652  0.66809307    -0.19700
F2342       F  0.87427589  0.44368950  0.75379817    -0.19800
F2343       F  0.84480072  0.98272089  0.76839077    -0.20100
F2344       F  0.89985648  0.50143436  0.75802078    -0.22800
C2345       C  0.68485415  0.47796537  0.70555808    -0.05600
C2346       C  0.68317096  0.00241448  0.72497758     0.00300
C2347       C  0.64750988  0.01703205  0.72982562    -0.08300
C2348       C  0.61973890  0.01822670  0.71392452    -0.05700
C2349       C  0.62631678  0.00501161  0.69334901     0.00300
C2350       C  0.65679442  0.47898738  0.69009842    -0.08200
C2351       C  0.66024074  0.45363592  0.67100135     0.62200
H2352       H  0.70826134  0.45969991  0.70366884     0.12900
H2353       H  0.59262608  0.02973536  0.71750343     0.12900
C2354       C  0.63946592  0.03238541  0.75155399     0.62400
F2355       F  0.68950489  0.42952135  0.67281096    -0.22700
F2356       F  0.67505274  0.99997500  0.65290755    -0.20100
F2357       F  0.62712740  0.43241507  0.66827310    -0.19700
F2358       F  0.66425679  0.06216264  0.75578124    -0.19800
F2359       F  0.64865900  0.52232492  0.76411627    -0.20100
F2360       F  0.60296732  0.04453119  0.75338064    -0.22800
C2361       C  0.71886774  0.06741348  0.79227026    -0.05600
C2362       C  0.74995581  0.06210283  0.77907179     0.00300
C2363       C  0.77981403  0.08962791  0.77875849    -0.08300
C2364       C  0.77823337  0.12036834  0.79280513    -0.05700
C2365       C  0.74806615  0.12407504  0.80692678     0.00300
C2366       C  0.71685879  0.09828837  0.80579857    -0.08200
C2367       C  0.68201971  0.10091431  0.81949722     0.62200
H2368       H  0.69618570  0.04628382  0.79246202     0.12900
H2369       H  0.80155454  0.14073449  0.79368711     0.12900
C2370       C  0.81420519  0.08567506  0.76481427     0.62400
F2371       F  0.65019608  0.08775585  0.80872815    -0.22700
F2372       F  0.67574700  0.13707245  0.82570234    -0.20100
F2373       F  0.68641006  0.07947158  0.83689326    -0.19700
F2374       F  0.80355702  0.08431777  0.74409160    -0.19800
F2375       F  0.83215891  0.05366788  0.76954666    -0.20100
F2376       F  0.84000977  0.11521797  0.76743781    -0.22800
C2377       C  0.71696823  0.42387768  0.79773240    -0.05600
C2378       C  0.73777643  0.42138027  0.77904787     0.00300
C2379       C  0.75200356  0.38606581  0.77342634    -0.08300
C2380       C  0.75514234  0.35952369  0.78909910    -0.05700
C2381       C  0.73924138  0.36463308  0.80904319     0.00300
C2382       C  0.71683297  0.39601362  0.81270767    -0.08200
C2383       C  0.69244372  0.40056552  0.83210331     0.62200
H2384       H  0.70117396  0.44847430  0.80083566     0.12900
H2385       H  0.76914672  0.33397708  0.78542390     0.12900
C2386       C  0.76044205  0.37311414  0.75120659     0.62400
F2387       F  0.66641055  0.42785306  0.82976830    -0.22700
F2388       F  0.71503509  0.41072434  0.84898695    -0.20100
F2389       F  0.67239202  0.36768654  0.83606267    -0.19700
F2390       F  0.79903349  0.37055572  0.74849538    -0.19800
F2391       F  0.74635853  0.39603780  0.73632665    -0.20100
F2392       F  0.74347362  0.33827662  0.74768441    -0.22800
C2393       C  0.59489937  0.22904023  0.02441614    -0.05600
C2394       C  0.57459284  0.26173648  0.02379939     0.00300
C2395       C  0.58703403  0.29361438  0.03559387    -0.08300
C2396       C  0.61810720  0.29068868  0.04882037    -0.05700
C2397       C  0.63672457  0.25740920  0.05039680     0.00300
C2398       C  0.62613185  0.22634076  0.03767152    -0.08200
C2399       C  0.64663794  0.19026895  0.03898267     0.62200
H2400       H  0.58493722  0.20508885  0.01522096     0.12900
H2401       H  0.62724494  0.31398865  0.05879161     0.12900
C2402       C  0.56749919  0.33038262  0.03463606     0.62400
F2403       F  0.63177851  0.16325807  0.02531972    -0.22700
F2404       F  0.64374915  0.17690394  0.05905059    -0.20100
F2405       F  0.68438337  0.19649217  0.03402810    -0.19700
F2406       F  0.56436776  0.34099958  0.01412737    -0.19800
F2407       F  0.58751410  0.35842769  0.04541508    -0.20100
F2408       F  0.53189301  0.32722412  0.04344152    -0.22800
C2409       C  0.93287841  0.22366563  0.04082042    -0.05600
C2410       C  0.93583979  0.25326957  0.02694004     0.00300
C2411       C  0.90992382  0.28209482  0.02849127    -0.08300
C2412       C  0.88023598  0.27861586  0.04297117    -0.05700
C2413       C  0.87812979  0.24969236  0.05732149     0.00300
C2414       C  0.90474668  0.22134184  0.05615155    -0.08200
C2415       C  0.90518844  0.18782508  0.07011291     0.62200
H2416       H  0.95340097  0.20210356  0.03981001     0.12900
H2417       H  0.85978584  0.30018449  0.04401987     0.12900
C2418       C  0.91321713  0.31797664  0.01655196     0.62400
F2419       F  0.90617966  0.15581443  0.05782789    -0.22700
F2420       F  0.87411205  0.18451267  0.08300691    -0.20100
F2421       F  0.93728251  0.19023786  0.08239781    -0.19700
F2422       F  0.88401494  0.31848000  0.00234138    -0.19800
F2423       F  0.94714838  0.32281515  0.00609135    -0.20100
F2424       F  0.91029171  0.34778659  0.03035637    -0.22800
C2425       C  0.59508032  0.28136244  0.97447836    -0.05600
C2426       C  0.57117768  0.25005622  0.97768627     0.00300
C2427       C  0.57842065  0.21592312  0.96727957    -0.08300
C2428       C  0.60839572  0.21504542  0.95300313    -0.05700
C2429       C  0.63185189  0.24644033  0.94960010     0.00300
C2430       C  0.62583392  0.28003406  0.96067523    -0.08200
C2431       C  0.65111818  0.31445320  0.95741242     0.62200
H2432       H  0.58882062  0.30713743  0.98244288     0.12900
H2433       H  0.61346880  0.18955638  0.94433678     0.12900
C2434       C  0.55575736  0.17973239  0.97040208     0.62400
F2435       F  0.63912958  0.34471686  0.96891718    -0.22700
F2436       F  0.65127955  0.32368448  0.93654862    -0.20100
F2437       F  0.68745526  0.30756070  0.96361983    -0.19700
F2438       F  0.53804636  0.16918759  0.95186820    -0.19800
F2439       F  0.52867278  0.18173654  0.98591421    -0.20100
F2440       F  0.58006477  0.15245198  0.97582727    -0.22800
C2441       C  0.93141666  0.28323013  0.96568551    -0.05600
C2442       C  0.93270402  0.25273967  0.97891677     0.00300
C2443       C  0.90324615  0.22497788  0.97829452    -0.08300
C2444       C  0.87299063  0.22951218  0.96462797    -0.05700
C2445       C  0.87318379  0.25875729  0.95049791     0.00300
C2446       C  0.90228289  0.28682702  0.95134448    -0.08200
C2447       C  0.90470731  0.32095883  0.93774328     0.62200
H2448       H  0.95430947  0.30418223  0.96617204     0.12900
H2449       H  0.85036519  0.20831815  0.96377627     0.12900
C2450       C  0.90311307  0.18951289  0.99067982     0.62400
F2451       F  0.90783597  0.35249532  0.95042640    -0.22700
F2452       F  0.87370130  0.32445224  0.92502520    -0.20100
F2453       F  0.93660982  0.31951580  0.92526926    -0.19700
F2454       F  0.87894354  0.19297642  0.00752842    -0.19800
F2455       F  0.93861816  0.18139353  0.99774882    -0.20100
F2456       F  0.89026485  0.15967976  0.97831581    -0.22800
C2457       C  0.85536537  0.52645722  0.30906589    -0.05600
C2458       C  0.87582710  0.49405916  0.30782798     0.00300
C2459       C  0.86796540  0.46753629  0.29172964    -0.08300
C2460       C  0.83847930  0.47393783  0.27767400    -0.05700
C2461       C  0.81824307  0.50676566  0.27865950     0.00300
C2462       C  0.82687875  0.53373996  0.29471056    -0.08200
C2463       C  0.80674391  0.57013275  0.29762840     0.62200
H2464       H  0.86219133  0.54654983  0.32145875     0.12900
H2465       H  0.83132217  0.45341545  0.26561573     0.12900
C2466       C  0.89030923  0.43257447  0.28969387     0.62400
F2467       F  0.80567714  0.58059473  0.31855066    -0.22700
F2468       F  0.76971335  0.56761553  0.29083960    -0.20100
F2469       F  0.81867025  0.09351578  0.28591397    -0.19700
F2470       F  0.88890056  0.41381564  0.30831015    -0.19800
F2471       F  0.92331688  0.93555119  0.28697672    -0.20100
F2472       F  0.87063670  0.90489983  0.27586314    -0.22800
C2473       C  0.64760866  0.00466732  0.27309122    -0.05600
C2474       C  0.68651408  0.49246607  0.27849861     0.00300
C2475       C  0.69086014  0.47967993  0.29930430    -0.08300
C2476       C  0.65872958  0.47641572  0.31237925    -0.05700
C2477       C  0.62260595  0.48687114  0.30628050     0.00300
C2478       C  0.61634189  0.00507011  0.28685664    -0.08200
C2479       C  0.58003238  0.02183953  0.27961046     0.62200
H2480       H  0.64387174  0.01387338  0.25729714     0.12900
H2481       H  0.66189980  0.46635383  0.32805755     0.12900
C2482       C  0.72873030  0.47108650  0.30872091     0.62400
F2483       F  0.58415822  0.03795868  0.26024121    -0.22700
F2484       F  0.56956219  0.04927318  0.29363937    -0.20100
F2485       F  0.55382554  0.48000044  0.27755824    -0.19700
F2486       F  0.72077165  0.95502285  0.32887703    -0.19800
F2487       F  0.74169687  0.43854945  0.30012807    -0.20100
F2488       F  0.75426090  0.50002468  0.30541799    -0.22800
C2489       C  0.77138307  0.10812633  0.19169633    -0.05600
C2490       C  0.74376111  0.13433234  0.19440821     0.00300
C2491       C  0.72070868  0.13311969  0.21248724    -0.08300
C2492       C  0.72556212  0.10443886  0.22686938    -0.05700
C2493       C  0.75215920  0.07640689  0.22372614     0.00300
C2494       C  0.77772446  0.08070148  0.20636374    -0.08200
C2495       C  0.81195436  0.05767701  0.20152387     0.62200
H2496       H  0.78950166  0.10997357  0.17801106     0.12900
H2497       H  0.70856730  0.10468327  0.24080321     0.12900
C2498       C  0.68978503  0.16072325  0.21605088     0.62400
F2499       F  0.82425523  0.03815546  0.21814084    -0.22700
F2500       F  0.84211796  0.08082220  0.19562527    -0.20100
F2501       F  0.80345031  0.03329734  0.18509765    -0.19700
F2502       F  0.66638874  0.16057782  0.19877164    -0.19800
F2503       F  0.70558171  0.19604590  0.21933079    -0.20100
F2504       F  0.66766307  0.15209842  0.23328704    -0.22800
C2505       C  0.78434980  0.39704215  0.19850325    -0.05600
C2506       C  0.75056990  0.37562221  0.19734935     0.00300
C2507       C  0.72035500  0.38406856  0.21100380    -0.08300
C2508       C  0.72422296  0.41566338  0.22431963    -0.05700
C2509       C  0.75743991  0.43817868  0.22467181     0.00300
C2510       C  0.78887878  0.42751245  0.21235908    -0.08200
C2511       C  0.82800596  0.44616725  0.21323915     0.62200
H2512       H  0.80770981  0.38976942  0.18838910     0.12900
H2513       H  0.70072286  0.42395548  0.23399776     0.12900
C2514       C  0.68395232  0.36056935  0.21112637     0.62400
F2515       F  0.85410202  0.41986038  0.21769221    -0.22700
F2516       F  0.83132892  0.47383361  0.22836204    -0.20100
F2517       F  0.83690324  0.46102762  0.19399626    -0.19700
F2518       F  0.69135059  0.32555563  0.21803634    -0.19800
F2519       F  0.66899409  0.35778780  0.19120856    -0.20100
F2520       F  0.65708156  0.37555670  0.22424914    -0.22800
C2521       C  0.75100564  0.54247501  0.23691082     0.86600
C2522       C  0.71742728  0.53530870  0.25229731    -0.53600
C2523       C  0.71660005  0.00346836  0.26425416     0.09600
C2524       C  0.75301078  0.98165791  0.26024602     0.20500
C2525       C  0.78549837  0.54231613  0.25131221    -0.54300
C2526       C  0.78576381  0.01037402  0.26477576     0.09700
C2527       C  0.75163600  0.50633323  0.22393012    -0.54700
C2528       C  0.75468272  0.97433381  0.23646670     0.10200
H2529       H  0.69467560  0.55389326  0.25496781     0.14800
H2530       H  0.75512025  0.95571870  0.26878673     0.00500
H2531       H  0.80535558  0.56571313  0.25305412     0.15100
H2532       H  0.75192415  0.00432156  0.20806664     0.14800
C2533       C  0.97109923  0.75557342  0.01362051     0.02400
C2534       C  0.97054616  0.75269638  0.99158931     0.02400
C2535       C  0.50483939  0.74902081  0.97934950    -0.18100
C2536       C  0.53920824  0.75056610  0.99001168     0.02400
C2537       C  0.53971135  0.75685396  0.01176877     0.02400
C2538       C  0.50567056  0.75682249  0.02263801    -0.18100
H2539       H  0.50607372  0.75845032  0.03957271     0.04400
H2540       H  0.50479506  0.74659529  0.96243396     0.04400
C2541       C  0.74292838  0.95690157  0.76661364     0.86600
C2542       C  0.70909090  0.96324413  0.75253176    -0.53600
C2543       C  0.71210554  0.49301436  0.74012207     0.09600
C2544       C  0.74827150  0.51755770  0.74442157     0.20500
C2545       C  0.77765816  0.95832761  0.75211023    -0.54300
C2546       C  0.78183732  0.49157287  0.74112090     0.09700
C2547       C  0.74830095  0.99330600  0.77968604    -0.53900
C2548       C  0.74815921  0.52514726  0.76818081     0.10200
H2549       H  0.68482593  0.94388018  0.75137609     0.14800
H2550       H  0.74944677  0.54289709  0.73496802     0.00500
H2551       H  0.79736937  0.93634329  0.75121683     0.15100
H2552       H  0.74619127  0.49398961  0.79635334     0.14800
C2553       C  0.50894368  0.79141491  0.73702839     0.86600
C2554       C  0.97048954  0.78604256  0.75071843    -0.53600
C2555       C  0.97024766  0.75526890  0.76272791     0.09600
C2556       C  0.50532496  0.73212526  0.76017597     0.20500
C2557       C  0.54300814  0.78786811  0.75144505    -0.54300
C2558       C  0.54234301  0.75663358  0.76322730     0.09700
C2559       C  0.50476050  0.75469001  0.72469789    -0.53900
C2560       C  0.50335027  0.72341670  0.73645288     0.10200
H2561       H  0.94744689  0.80491825  0.75169913     0.14800
H2562       H  0.50315442  0.70755462  0.77016758     0.00500
H2563       H  0.56484386  0.80960571  0.75277950     0.15100
H2564       H  0.50230984  0.75357858  0.70778847     0.14800
C2565       C  0.74311091  0.96638862  0.01347387     0.02400
C2566       C  0.74297896  0.96553200  0.99130845     0.02400
C2567       C  0.75104366  0.50021331  0.98080826    -0.18100
C2568       C  0.75042188  0.53454476  0.99165396     0.02400
C2569       C  0.74554831  0.53497052  0.01357974     0.02400
C2570       C  0.74602322  0.50125408  0.02416567    -0.18100
H2571       H  0.74583705  0.50174326  0.04110444     0.04400
H2572       H  0.75372966  0.50001762  0.96392975     0.04400
O2573       O  0.86134792  0.75739505  0.91440363    -0.75100
O2574       O  0.81474122  0.75278872  0.93906238    -0.54100
C2575       C  0.84933656  0.75704585  0.93339796     0.78600
O2576       O  0.74540639  0.84741999  0.84528603    -0.59700
O2577       O  0.74760996  0.80219434  0.82004906    -0.52800
C2578       C  0.74376698  0.83620401  0.82613178     0.70600
O2579       O  0.75391780  0.85029335  0.91540935    -0.74300
O2580       O  0.75603509  0.80538497  0.93989105    -0.54900
C2581       C  0.75447098  0.83945503  0.93445627     0.76600
O2582       O  0.86154618  0.75287132  0.84461414    -0.59400
O2583       O  0.81588771  0.74981715  0.81963459    -0.52600
C2584       C  0.85093393  0.75246387  0.82548997     0.73200
Zr2585     Zr  0.83462356  0.75142274  0.87943028     2.54700
O2586       O  0.88090232  0.80321262  0.88015134    -0.80000
O2587       O  0.88197348  0.70424401  0.88067931    -0.93400
Zr2588     Zr  0.75329596  0.82329610  0.88009487     2.64700
O2589       O  0.80173317  0.87306274  0.87829210    -0.98400
O2590       O  0.70195633  0.86611706  0.88332318    -0.80400
O2591       O  0.79522464  0.78897002  0.90007327    -0.83800
O2592       O  0.79427523  0.78750999  0.85916435    -2.18500
O2593       O  0.75263864  0.64087001  0.84410160    -0.67200
O2594       O  0.75473204  0.68587395  0.81937871    -0.51800
C2595       C  0.75211253  0.65171360  0.82499128     0.71600
O2596       O  0.65248337  0.73784073  0.91605216    -0.60100
O2597       O  0.69979581  0.74538811  0.94011888    -0.52100
C2598       C  0.66499734  0.74143066  0.93488207     0.73400
O2599       O  0.64862702  0.73862635  0.84573257    -0.71500
O2600       O  0.69422012  0.73945301  0.82063701    -0.50200
C2601       C  0.65915111  0.73826811  0.82652454     0.74800
O2602       O  0.76050867  0.64352309  0.91509039    -0.66800
O2603       O  0.75599182  0.69028872  0.93949755    -0.54000
C2604       C  0.75793081  0.65586225  0.93410057     0.73100
Zr2605     Zr  0.75793775  0.66814421  0.87958847     2.77500
O2606       O  0.70464239  0.62457855  0.88466012    -0.97600
O2607       O  0.80535387  0.62112445  0.87672546    -0.78400
Zr2608     Zr  0.67694421  0.74024774  0.88035343     2.70100
O2609       O  0.63026832  0.68870804  0.87889001    -0.79600
O2610       O  0.63045401  0.78818188  0.88248846    -0.98700
Zr2611     Zr  0.75678854  0.74720940  0.91990212     2.21500
Zr2612     Zr  0.75531564  0.74474388  0.83884740     2.11100
O2613       O  0.71691706  0.70350761  0.85950524    -2.47400
O2614       O  0.71739263  0.70436128  0.90037228    -0.79400
O2615       O  0.79668897  0.70873157  0.85898671    -0.71600
O2616       O  0.71486240  0.78290300  0.90043513    -2.32600
O2617       O  0.79769085  0.70955291  0.89976699    -2.28800
O2618       O  0.71448398  0.78144930  0.85975095    -0.73400
H2619       H  0.80905651  0.80379143  0.85022532     0.78600
H2620       H  0.69903140  0.79721520  0.90957505     0.79700
H2621       H  0.70116636  0.68719950  0.85076353     0.81900
H2622       H  0.81389048  0.69581648  0.90864098     0.79500
H2623       H  0.68704200  0.85792235  0.89561796     0.42600
H2624       H  0.63078840  0.79950486  0.86852540     0.41500
H2625       H  0.62228959  0.68454932  0.89350976     0.41200
H2626       H  0.68585667  0.63102894  0.87405424     0.39100
H2627       H  0.79783803  0.60240204  0.88721411     0.42300
H2628       H  0.89601053  0.70601656  0.86732022     0.37100
H2629       H  0.86568296  0.82555427  0.87914626     0.43200
H2630       H  0.81219053  0.87120148  0.86396401     0.39600
H2631       H  0.71393323  0.60017862  0.88009592     0.44500
H2632       H  0.86725307  0.68035151  0.87951893     0.43200
H2633       H  0.78742271  0.89611527  0.87840166     0.43400
H2634       H  0.60576360  0.77437822  0.88326250     0.43700
O2635       O  0.75587606  0.85908538  0.16201349    -0.75100
O2636       O  0.75070071  0.81335413  0.18617250    -0.54100
C2637       C  0.75325671  0.84755810  0.18093677     0.78600
O2638       O  0.65032250  0.75825105  0.08708944    -0.59700
O2639       O  0.69887784  0.75663578  0.06352612    -0.52800
C2640       C  0.66377864  0.75761503  0.06839285     0.70600
O2641       O  0.64228504  0.76103224  0.15686495    -0.74300
O2642       O  0.68624858  0.75924401  0.18249614    -0.54900
C2643       C  0.65160453  0.76057673  0.17617127     0.76600
O2644       O  0.75877144  0.85980785  0.09101652    -0.59400
O2645       O  0.75963901  0.81346904  0.06606672    -0.52600
C2646       C  0.75976839  0.84788538  0.07190400     0.73200
Zr2647     Zr  0.75709783  0.83388487  0.12608462     2.54700
O2648       O  0.71260684  0.88372573  0.12712657    -0.80000
O2649       O  0.81139776  0.87743537  0.12625688    -0.93400
Zr2650     Zr  0.67293492  0.75797848  0.12303141     2.64700
O2651       O  0.62753958  0.80693291  0.12218621    -0.98400
O2652       O  0.62511379  0.70751432  0.12131895    -0.80400
O2653       O  0.71284161  0.79639177  0.14486020    -0.83800
O2654       O  0.71610079  0.79641017  0.10432300    -2.18500
O2655       O  0.85892889  0.75369756  0.09154851    -0.67200
O2656       O  0.81375660  0.75283502  0.06615735    -0.51800
C2657       C  0.84814320  0.75234340  0.07234490     0.71600
O2658       O  0.74512135  0.65355016  0.15946505    -0.60100
O2659       O  0.74227463  0.69929148  0.18462232    -0.52100
C2660       C  0.74312131  0.66514756  0.17857733     0.73400
O2661       O  0.74256085  0.65066297  0.08923121    -0.71500
O2662       O  0.75042437  0.69626849  0.06517137    -0.50200
C2663       C  0.74575058  0.66197691  0.07033676     0.74800
O2664       O  0.85535823  0.74781339  0.16127941    -0.66800
O2665       O  0.80792544  0.75033048  0.18550197    -0.54000
C2666       C  0.84294729  0.74660840  0.18014640     0.73100
Zr2667     Zr  0.83042277  0.75442691  0.12636455     2.77500
O2668       O  0.87750459  0.70726558  0.12828276    -0.97600
O2669       O  0.87906125  0.80418645  0.12753152    -0.78400
Zr2670     Zr  0.74575463  0.67835172  0.12433472     2.70100
O2671       O  0.79231539  0.63046052  0.12375595    -0.79600
O2672       O  0.69139850  0.63472130  0.12481333    -0.98700
Zr2673     Zr  0.74865695  0.75639938  0.16562688     2.21500
Zr2674     Zr  0.75472446  0.75534730  0.08474591     2.11100
O2675       O  0.79051633  0.71495035  0.10518591    -2.47400
O2676       O  0.78699382  0.71630130  0.14546140    -0.79400
O2677       O  0.79572473  0.79461697  0.10572507    -0.71600
O2678       O  0.70723541  0.71805485  0.14426484    -2.32600
O2679       O  0.79322879  0.79479855  0.14690465    -2.28800
O2680       O  0.71027058  0.71722057  0.10319652    -0.73400
H2681       H  0.70221950  0.81194951  0.09521075     0.78600
H2682       H  0.68989609  0.70346126  0.15275944     0.79700
H2683       H  0.80538867  0.69896044  0.09644150     0.81900
H2684       H  0.80924284  0.80939321  0.15640189     0.79500
H2685       H  0.63775590  0.68686050  0.11408386     0.42600
H2686       H  0.70239773  0.61014995  0.12653697     0.41500
H2687       H  0.81262714  0.64029760  0.13318073     0.41200
H2688       H  0.86547698  0.68472684  0.12169826     0.39100
H2689       H  0.87542738  0.81703563  0.14115976     0.42300
H2690       H  0.83026747  0.86527787  0.11726360     0.37100
H2691       H  0.69366933  0.87614013  0.13779900     0.43200
H2692       H  0.64064115  0.82739577  0.11461471     0.39600
H2693       H  0.89798674  0.71521994  0.11860701     0.44500
H2694       H  0.82189649  0.87631022  0.14052921     0.43200
H2695       H  0.60736930  0.79749796  0.11255861     0.43400
H2696       H  0.67841852  0.63971304  0.13824295     0.43700
O2697       O  0.60464685  0.00598405  0.65784787    -0.75100
O2698       O  0.56013208  0.00731893  0.68347058    -0.54100
C2699       C  0.59500202  0.50581874  0.67729715     0.78600
O2700       O  0.99206890  0.60217804  0.58787462    -0.59700
O2701       O  0.99216590  0.55433456  0.56390108    -0.52800
C2702       C  0.99117322  0.58905065  0.56894963     0.70600
O2703       O  0.99417076  0.60750630  0.65901810    -0.74300
O2704       O  0.99803818  0.56330574  0.68396176    -0.54900
C2705       C  0.99545776  0.59703135  0.67817035     0.76600
O2706       O  0.60038147  0.50838243  0.58785576    -0.59400
O2707       O  0.55229868  0.50322453  0.56423835    -0.52600
C2708       C  0.58738305  0.50577212  0.56907570     0.73200
Zr2709     Zr  0.57646065  0.00491851  0.62290348     2.54700
O2710       O  0.62581040  0.55533037  0.62479377    -0.80000
O2711       O  0.61753444  0.95291495  0.61772821    -0.93400
Zr2712     Zr  0.99689982  0.57954390  0.62366663     2.64700
O2713       O  0.55068671  0.62967260  0.62295102    -0.98400
O2714       O  0.95081876  0.62785622  0.62263970    -0.80400
O2715       O  0.53868235  0.54668483  0.64462562    -0.83800
O2716       O  0.53698921  0.54444941  0.60363639    -2.18500
O2717       O  0.99634399  0.89526411  0.59039771    -0.67200
O2718       O  0.99513960  0.93922671  0.56524113    -0.51800
C2719       C  0.99655869  0.90539035  0.57124023     0.71600
O2720       O  0.89287165  0.00184145  0.66014208    -0.60100
O2721       O  0.93949706  0.00628145  0.68457521    -0.52100
C2722       C  0.90422444  0.00477024  0.67915822     0.73400
O2723       O  0.88979813  0.50083187  0.59017389    -0.71500
O2724       O  0.93560458  0.49545857  0.56518036    -0.50200
C2725       C  0.90294193  0.00125604  0.57045326     0.74800
O2726       O  0.99413936  0.90242429  0.66047030    -0.66800
O2727       O  0.99888567  0.94922753  0.68496300    -0.54000
C2728       C  0.99693266  0.91473918  0.67943606     0.73100
Zr2729     Zr  0.99406993  0.92472562  0.62493990     2.77500
O2730       O  0.94205461  0.87841550  0.62459855    -0.97600
O2731       O  0.53798121  0.87337073  0.62328239    -0.78400
Zr2732     Zr  0.91829025  0.00197654  0.62483567     2.70100
O2733       O  0.86888672  0.95304885  0.62377081    -0.79600
O2734       O  0.87555486  0.55261821  0.62757140    -0.98700
Zr2735     Zr  0.99937817  0.00529982  0.66479089     2.21500
Zr2736     Zr  0.99402787  0.49795858  0.58413997     2.11100
O2737       O  0.95424294  0.96069228  0.60450571    -2.47400
O2738       O  0.95664624  0.96455649  0.64552001    -0.79400
O2739       O  0.53641055  0.96298956  0.60338539    -0.71600
O2740       O  0.95711989  0.54150778  0.64483066    -2.32600
O2741       O  0.53776491  0.96551970  0.64384408    -2.28800
O2742       O  0.95579661  0.53847833  0.60413661    -0.73400
H2743       H  0.55219699  0.55962169  0.59430752     0.78600
H2744       H  0.94181919  0.55686517  0.65372362     0.79700
H2745       H  0.93789112  0.94474432  0.59587334     0.81900
H2746       H  0.55374491  0.95114747  0.65249551     0.79500
H2747       H  0.96577844  0.65079935  0.61933884     0.42600
H2748       H  0.88524634  0.56995390  0.61683745     0.41500
H2749       H  0.84597541  0.96560641  0.61930233     0.41200
H2750       H  0.95440977  0.85430273  0.62525460     0.39100
H2751       H  0.56135640  0.88304984  0.63026533     0.42300
H2752       H  0.60944185  0.93473235  0.62837181     0.37100
H2753       H  0.64565648  0.54637786  0.61522267     0.43200
H2754       H  0.53996986  0.65096959  0.61582031     0.39600
H2755       H  0.92963744  0.88134362  0.63838071     0.44500
H2756       H  0.64289328  0.96238309  0.62222484     0.43200
H2757       H  0.55444868  0.63850658  0.63756579     0.43400
H2758       H  0.85081168  0.54283047  0.62228883     0.43700
O2759       O  0.00029239  0.58959572  0.34187932    -0.75100
O2760       O  0.00060521  0.54187245  0.31788320    -0.54100
C2761       C  0.00098478  0.57661994  0.32299499     0.78600
O2762       O  0.60009158  0.99104684  0.41406697    -0.59700
O2763       O  0.55355259  0.99699823  0.43858955    -0.52800
C2764       C  0.59163241  0.49587274  0.43143614     0.70600
O2765       O  0.60154011  0.99432676  0.34304328    -0.74300
O2766       O  0.55507024  0.98940155  0.31856739    -0.54900
C2767       C  0.59239903  0.48794426  0.32293587     0.76600
O2768       O  0.99938901  0.59682230  0.41192984    -0.59400
O2769       O  0.99775383  0.55298688  0.43719511    -0.52600
C2770       C  0.49869041  0.58722265  0.43157126     0.73200
Zr2771     Zr  0.99794366  0.56670125  0.37744133     2.54700
O2772       O  0.54413384  0.62058863  0.37753832    -0.80000
O2773       O  0.94569301  0.60868202  0.37738877    -0.93400
Zr2774     Zr  0.57529147  0.99484183  0.37851479     2.64700
O2775       O  0.62447741  0.54450373  0.37560957    -0.98400
O2776       O  0.62490300  0.95005160  0.37738057    -0.80400
O2777       O  0.53808249  0.53039947  0.35712608    -0.83800
O2778       O  0.53896690  0.53329877  0.39752821    -2.18500
O2779       O  0.89125746  0.98252536  0.41327772    -0.67200
O2780       O  0.93769524  0.49106881  0.43809115    -0.51800
C2781       C  0.90324283  0.98360037  0.43221267     0.71600
O2782       O  0.99140475  0.88130740  0.34561926    -0.60100
O2783       O  0.99239857  0.92510717  0.32038276    -0.52100
C2784       C  0.99013041  0.89126895  0.32647513     0.73400
O2785       O  0.00170625  0.88836623  0.41550276    -0.71500
O2786       O  0.99909916  0.93626346  0.43935462    -0.50200
C2787       C  0.00058052  0.90158132  0.43430954     0.74800
O2788       O  0.89202883  0.98583631  0.34368676    -0.66800
O2789       O  0.93841220  0.98492447  0.31882871    -0.54000
C2790       C  0.90364122  0.98610085  0.32465689     0.73100
Zr2791     Zr  0.91864001  0.98449687  0.37853709     2.77500
O2792       O  0.87228363  0.93279173  0.37650040    -0.97600
O2793       O  0.86869369  0.53163458  0.38077783    -0.78400
Zr2794     Zr  0.99887872  0.91097981  0.37989328     2.70100
O2795       O  0.95170586  0.86105810  0.38500349    -0.79600
O2796       O  0.54002177  0.86865680  0.37798642    -0.98700
Zr2797     Zr  0.99738733  0.98511523  0.33818136     2.21500
Zr2798     Zr  0.99724594  0.99222302  0.41874299     2.11100
O2799       O  0.95807581  0.94883439  0.39936596    -2.47400
O2800       O  0.95798469  0.94516231  0.35887258    -0.79400
O2801       O  0.95682483  0.52923527  0.39830148    -0.71600
O2802       O  0.53517213  0.95301748  0.35879550    -2.32600
O2803       O  0.95791776  0.52556170  0.35762130    -2.28800
O2804       O  0.53481141  0.95655750  0.39924465    -0.73400
H2805       H  0.55473772  0.54957167  0.40621711     0.78600
H2806       H  0.55007461  0.93720399  0.34994491     0.79700
H2807       H  0.94297182  0.93322150  0.40849484     0.81900
H2808       H  0.94302375  0.54010912  0.34848293     0.79500
H2809       H  0.61172352  0.92608440  0.38057566     0.42600
H2810       H  0.52537820  0.84553814  0.37417334     0.41500
H2811       H  0.92886609  0.86940255  0.37788250     0.41200
H2812       H  0.84886258  0.94387851  0.37155776     0.39100
H2813       H  0.88145849  0.55548146  0.37696870     0.42300
H2814       H  0.93204745  0.60288277  0.36417767     0.37100
H2815       H  0.56879078  0.60900572  0.37927591     0.43200
H2816       H  0.62583654  0.55511563  0.38998378     0.39600
H2817       H  0.88067824  0.91727548  0.36454956     0.44500
H2818       H  0.95782271  0.63354816  0.37526200     0.43200
H2819       H  0.64879750  0.53224353  0.37357216     0.43400
H2820       H  0.55542119  0.87433595  0.36542940     0.43700
C2821       C  0.49127899  0.78153489  0.51225116     0.02400
C2822       C  0.49523061  0.78164123  0.49023894     0.02400
C2823       C  0.49484918  0.74750614  0.47916828    -0.18100
C2824       C  0.49109574  0.71317211  0.48933518     0.02400
C2825       C  0.48737886  0.71317317  0.51145647     0.02400
C2826       C  0.48883636  0.74740329  0.52245319    -0.18100
H2827       H  0.48738500  0.74752073  0.53937982     0.04400
H2828       H  0.49736364  0.74769126  0.46228064     0.04400
C2829       C  0.78007797  0.99358937  0.51234607     0.02400
C2830       C  0.78034715  0.99047880  0.49032165     0.02400
C2831       C  0.74612499  0.98961771  0.47951626    -0.18100
C2832       C  0.71182385  0.99226981  0.49005018     0.02400
C2833       C  0.71179560  0.99875470  0.51184797     0.02400
C2834       C  0.74578393  0.99780548  0.52281365    -0.18100
H2835       H  0.74561871  0.00052104  0.53971094     0.04400
H2836       H  0.74624681  0.98744909  0.46259434     0.04400
C2837       C  0.50412429  0.70401227  0.26588256     0.86600
C2838       C  0.96915274  0.70171464  0.24953537    -0.53600
C2839       C  0.96741819  0.73386212  0.23867824     0.09600
C2840       C  0.49918588  0.76507106  0.24448899     0.20500
C2841       C  0.53762433  0.71190178  0.25131159    -0.54300
C2842       C  0.53579139  0.74385806  0.24042688     0.09700
C2843       C  0.49986639  0.73941699  0.27921588    -0.53900
C2844       C  0.49792498  0.77181712  0.26842448     0.10200
H2845       H  0.94678104  0.68066409  0.24763644     0.14800
H2846       H  0.49717834  0.78988019  0.23485379     0.00500
H2847       H  0.56036461  0.69291878  0.24900145     0.15100
H2848       H  0.49671192  0.73847200  0.29606474     0.14800
C2849       C  0.50699493  0.87124853  0.29139281    -0.05600
C2850       C  0.98767033  0.86161046  0.31015194     0.00300
C2851       C  0.96375847  0.82939928  0.31181995    -0.08300
C2852       C  0.96638214  0.80128102  0.29647951    -0.05700
C2853       C  0.99229165  0.80359414  0.27970827     0.00300
C2854       C  0.51034775  0.84226766  0.27640954    -0.08200
C2855       C  0.53494876  0.84948705  0.25733800     0.62200
H2856       H  0.52284679  0.89726432  0.28942324     0.12900
H2857       H  0.94905708  0.77608113  0.29810400     0.12900
C2858       C  0.93595352  0.82396117  0.32976701     0.62400
F2859       F  0.55655909  0.88222117  0.25943463    -0.22700
F2860       F  0.01835478  0.84897514  0.24090494    -0.20100
F2861       F  0.55955434  0.82129632  0.25420950    -0.19700
F2862       F  0.91569814  0.85559456  0.33297817    -0.19800
F2863       F  0.95530382  0.81625214  0.34777233    -0.20100
F2864       F  0.91022928  0.79471431  0.32579025    -0.22800
C2865       C  0.53158470  0.63742659  0.30989207    -0.05600
C2866       C  0.00339051  0.60450363  0.30629008     0.00300
C2867       C  0.97845905  0.60445000  0.28915140    -0.08300
C2868       C  0.98063729  0.63449574  0.27542432    -0.05700
C2869       C  0.50888097  0.66895855  0.27916356     0.00300
C2870       C  0.53552681  0.66715791  0.29601526    -0.08200
C2871       C  0.57022673  0.69352216  0.29900222     0.62200
H2872       H  0.54958462  0.63663516  0.32350701     0.12900
H2873       H  0.96175332  0.63325253  0.26236474     0.12900
C2874       C  0.94876103  0.57342174  0.28576563     0.62400
F2875       F  0.59188330  0.68403085  0.31592173    -0.22700
F2876       F  0.56074941  0.72978825  0.30249614    -0.20100
F2877       F  0.59321513  0.69129778  0.28165598    -0.19700
F2878       F  0.92820845  0.56837697  0.30392279    -0.19800
F2879       F  0.96620715  0.54094142  0.28035323    -0.20100
F2880       F  0.92366611  0.58111962  0.27003327    -0.22800
C2881       C  0.96888118  0.61862692  0.46080809    -0.05600
C2882       C  0.49963828  0.61708942  0.44789260     0.00300
C2883       C  0.52864917  0.64548163  0.44903737    -0.08300
C2884       C  0.52536624  0.67458767  0.46378313    -0.05700
C2885       C  0.49286959  0.67850731  0.47612118     0.00300
C2886       C  0.96311241  0.64965318  0.47405426    -0.08200
C2887       C  0.92431005  0.65230683  0.48387967     0.62200
H2888       H  0.94688563  0.59685373  0.45957886     0.12900
H2889       H  0.54794017  0.69579264  0.46495975     0.12900
C2890       C  0.56286651  0.64809142  0.43471100     0.62400
F2891       F  0.89695184  0.64294034  0.46909839    -0.22700
F2892       F  0.91729022  0.68765740  0.49111116    -0.20100
F2893       F  0.92083773  0.62780897  0.50016011    -0.19700
F2894       F  0.56038502  0.67927450  0.42264632    -0.19800
F2895       F  0.56609149  0.61780227  0.42147614    -0.20100
F2896       F  0.59546707  0.65166055  0.44656122    -0.22800
C2897       C  0.53022339  0.86542247  0.45854461    -0.05600
C2898       C  0.99934733  0.87417574  0.45113560     0.00300
C2899       C  0.96464571  0.85747185  0.45769036    -0.08300
C2900       C  0.96494055  0.82808472  0.47167995    -0.05700
C2901       C  0.49694776  0.81640769  0.47796693     0.00300
C2902       C  0.53136092  0.83515114  0.47224946    -0.08200
C2903       C  0.56903552  0.82242126  0.47999996     0.62200
H2904       H  0.55617906  0.87946589  0.45347019     0.12900
H2905       H  0.93870399  0.81365526  0.47581303     0.12900
C2906       C  0.92749318  0.86982799  0.44925174     0.62400
F2907       F  0.57058602  0.82624006  0.50145962    -0.22700
F2908       F  0.59909640  0.84306962  0.47173545    -0.20100
F2909       F  0.57334926  0.78557728  0.47439070    -0.19700
F2910       F  0.92607622  0.86291855  0.42794857    -0.19800
F2911       F  0.92452200  0.90739488  0.45330233    -0.20100
F2912       F  0.89690015  0.85125585  0.45836942    -0.22800
C2913       C  0.63638182  0.95973860  0.45139903    -0.05600
C2914       C  0.61617748  0.99213735  0.44973512     0.00300
C2915       C  0.62721140  0.52661591  0.46146023    -0.08300
C2916       C  0.65632754  0.52492595  0.47611073    -0.05700
C2917       C  0.67694483  0.99004105  0.47750272     0.00300
C2918       C  0.66622122  0.95772070  0.46560987    -0.08200
C2919       C  0.68631929  0.92142822  0.46751482     0.62200
H2920       H  0.62899215  0.93615836  0.44123000     0.12900
H2921       H  0.66374568  0.54880774  0.48603000     0.12900
C2922       C  0.60614289  0.56199367  0.45930701     0.62400
F2923       F  0.66392159  0.89164863  0.46015511    -0.22700
F2924       F  0.69473492  0.91487709  0.48816987    -0.20100
F2925       F  0.71085720  0.42095778  0.44756504    -0.19700
F2926       F  0.56508831  0.04995820  0.46873633    -0.19800
F2927       F  0.60916445  0.57336124  0.43890420    -0.20100
F2928       F  0.62075613  0.59037695  0.47215395    -0.22800
C2929       C  0.87336758  0.51681783  0.46290638    -0.05600
C2930       C  0.87461803  0.98141310  0.44877630     0.00300
C2931       C  0.84598413  0.95274081  0.44969742    -0.08300
C2932       C  0.81774883  0.95574199  0.46492711    -0.05700
C2933       C  0.81509557  0.98761824  0.47772913     0.00300
C2934       C  0.84282290  0.52157081  0.47659700    -0.08200
C2935       C  0.84011523  0.55930525  0.48736202     0.62200
H2936       H  0.89501699  0.53887010  0.46175682     0.12900
H2937       H  0.79596796  0.93380753  0.46600574     0.12900
C2938       C  0.84214342  0.91960807  0.43463071     0.62400
F2939       F  0.84401629  0.58663305  0.47258572    -0.22700
F2940       F  0.86894534  0.56417837  0.50179237    -0.20100
F2941       F  0.80597605  0.56416776  0.49732024    -0.19700
F2942       F  0.83587916  0.88740804  0.44572518    -0.19800
F2943       F  0.87356373  0.91495492  0.42222188    -0.20100
F2944       F  0.81139581  0.92409305  0.42178660    -0.22800
C2945       C  0.64783116  0.97757602  0.52274729    -0.05600
C2946       C  0.67684288  0.00511237  0.52379748     0.00300
C2947       C  0.67407873  0.53337470  0.53831764    -0.08300
C2948       C  0.64408106  0.53356852  0.55258790    -0.05700
C2949       C  0.61518499  0.50591002  0.55195421     0.00300
C2950       C  0.61604877  0.97908597  0.53570152    -0.08200
C2951       C  0.58447260  0.94956321  0.53332889     0.62200
H2952       H  0.65079446  0.95418146  0.51211619     0.12900
H2953       H  0.64320233  0.55534085  0.56450062     0.12900
C2954       C  0.70325819  0.56548638  0.53887255     0.62400
F2955       F  0.59238232  0.92320695  0.51806176    -0.22700
F2956       F  0.55016180  0.46817233  0.52764430    -0.20100
F2957       F  0.57923896  0.93159309  0.55197321    -0.19700
F2958       F  0.71643904  0.57320851  0.51899030    -0.19800
F2959       F  0.72811116  0.06494908  0.55302875    -0.20100
F2960       F  0.68771518  0.59743456  0.54688936    -0.22800
C2961       C  0.86577042  0.96710245  0.54343302    -0.05600
C2962       C  0.87409494  0.00080311  0.55407264     0.00300
C2963       C  0.84936357  0.52895543  0.55200635    -0.08300
C2964       C  0.82054249  0.52571928  0.53720551    -0.05700
C2965       C  0.81464788  0.99496870  0.52512333     0.00300
C2966       C  0.83548787  0.96322551  0.52933841    -0.08200
C2967       C  0.82639652  0.92468997  0.52016558     0.62200
H2968       H  0.88190817  0.94307702  0.54700576     0.12900
H2969       H  0.80167242  0.54834007  0.53540996     0.12900
C2970       C  0.85448049  0.56456028  0.56488048     0.62400
F2971       F  0.85339311  0.91642576  0.50532089    -0.22700
F2972       F  0.79110774  0.92123561  0.51101280    -0.20100
F2973       F  0.82933192  0.39789317  0.53278364    -0.19700
F2974       F  0.90276070  0.07774838  0.55764754    -0.19800
F2975       F  0.84347679  0.55802868  0.58517835    -0.20100
F2976       F  0.83283166  0.59255583  0.55741461    -0.22800
C2977       C  0.51347228  0.65335882  0.52233636    -0.05600
C2978       C  0.48417453  0.67858379  0.52398012     0.00300
C2979       C  0.95552596  0.67089100  0.53981088    -0.08300
C2980       C  0.95892409  0.64163184  0.55375521    -0.05700
C2981       C  0.48999027  0.62034956  0.55285718     0.00300
C2982       C  0.51679268  0.62409846  0.53647350    -0.08200
C2983       C  0.55033099  0.59916528  0.53494201     0.62200
H2984       H  0.53510585  0.65804450  0.51059218     0.12900
H2985       H  0.93860243  0.63859746  0.56638653     0.12900
C2986       C  0.92156895  0.69499210  0.54313295     0.62400
F2987       F  0.57419247  0.60872179  0.51857251    -0.22700
F2988       F  0.53793672  0.56265327  0.53171506    -0.20100
F2989       F  0.57092383  0.60213006  0.55327205    -0.19700
F2990       F  0.88890850  0.67258862  0.54328712    -0.19800
F2991       F  0.91725443  0.72092943  0.52787572    -0.20100
F2992       F  0.92499378  0.71341463  0.56223944    -0.22800
C2993       C  0.52400721  0.82129347  0.53867064    -0.05600
C2994       C  0.49248114  0.81592040  0.52560403     0.00300
C2995       C  0.96128431  0.83672827  0.52975575    -0.08300
C2996       C  0.96532504  0.86840376  0.54296098    -0.05700
C2997       C  0.99784508  0.87550262  0.55510494     0.00300
C2998       C  0.52723400  0.85064420  0.55336998    -0.08200
C2999       C  0.56156841  0.85081566  0.56758061     0.62200
H3000       H  0.54608840  0.80126544  0.53786937     0.12900
H3001       H  0.94152763  0.88618797  0.54510547     0.12900
C3002       C  0.92205271  0.82791667  0.52103425     0.62400
F3003       F  0.55923195  0.81949985  0.57973435    -0.22700
F3004       F  0.56519005  0.88158124  0.58069149    -0.20100
F3005       F  0.59399575  0.84967368  0.55549926    -0.19700
F3006       F  0.89595539  0.82828446  0.53719389    -0.19800
F3007       F  0.91867117  0.79347926  0.51123231    -0.20100
F3008       F  0.91307965  0.85482821  0.50700713    -0.22800
C3009       C  0.63098651  0.75943624  0.21338576    -0.05600
C3010       C  0.62036285  0.76056564  0.19227218     0.00300
C3011       C  0.58069774  0.76053436  0.18755301    -0.08300
C3012       C  0.55425492  0.75728884  0.20405786    -0.05700
C3013       C  0.56544272  0.75450538  0.22486134     0.00300
C3014       C  0.60452733  0.75756070  0.22972557    -0.08200
C3015       C  0.62047402  0.76024445  0.25170028     0.62200
H3016       H  0.66067651  0.75995249  0.21744630     0.12900
H3017       H  0.52423462  0.75524798  0.20077807     0.12900
C3018       C  0.56530654  0.76307290  0.16546968     0.62400
F3019       F  0.64225681  0.72995914  0.25512707    -0.22700
F3020       F  0.59309624  0.76189672  0.26702014    -0.20100
F3021       F  0.64323081  0.79224531  0.25363271    -0.19700
F3022       F  0.57599886  0.73289668  0.15350035    -0.19800
F3023       F  0.57862634  0.79575081  0.15663027    -0.20100
F3024       F  0.52618097  0.76306977  0.16506945    -0.22800
C3025       C  0.93086200  0.71327006  0.20719730    -0.05600
C3026       C  0.93566811  0.73932814  0.22364606     0.00300
C3027       C  0.90714682  0.76545776  0.22711058    -0.08300
C3028       C  0.87630115  0.76616820  0.21310423    -0.05700
C3029       C  0.87203756  0.74046984  0.19642422     0.00300
C3030       C  0.89886027  0.71225239  0.19415853    -0.08200
C3031       C  0.89439570  0.67932527  0.17904062     0.62200
H3032       H  0.95165274  0.69217673  0.20512026     0.12900
H3033       H  0.85558641  0.78733718  0.21486256     0.12900
C3034       C  0.90841300  0.79155253  0.24591470     0.62400
F3035       F  0.89975507  0.64685686  0.18963920    -0.22700
F3036       F  0.92142914  0.68256277  0.16347781    -0.20100
F3037       F  0.85895592  0.67605347  0.17003443    -0.19700
F3038       F  0.93850558  0.81685434  0.24406997    -0.19800
F3039       F  0.91222114  0.77129076  0.26380519    -0.20100
F3040       F  0.87570008  0.81112085  0.24792568    -0.22800
C3041       C  0.71150298  0.61031638  0.05118984    -0.05600
C3042       C  0.74454128  0.63286623  0.05354145     0.00300
C3043       C  0.77695039  0.62456899  0.04154633    -0.08300
C3044       C  0.77542396  0.59363151  0.02774013    -0.05700
C3045       C  0.74304931  0.57010474  0.02612403     0.00300
C3046       C  0.71015962  0.57885615  0.03768494    -0.08200
C3047       C  0.67408832  0.55460479  0.03621761     0.62200
H3048       H  0.68714344  0.61671667  0.06068469     0.12900
H3049       H  0.80031759  0.58621617  0.01897072     0.12900
C3050       C  0.81412020  0.64592009  0.04498134     0.62400
F3051       F  0.64391542  0.57148072  0.04576270    -0.22700
F3052       F  0.67906618  0.52129945  0.04594838    -0.20100
F3053       F  0.66471502  0.54759308  0.01552258    -0.19700
F3054       F  0.82513407  0.64148142  0.06542026    -0.19800
F3055       F  0.81016677  0.68316897  0.04122965    -0.20100
F3056       F  0.84232544  0.63326375  0.03195725    -0.22800
C3057       C  0.72297321  0.87937253  0.04559618    -0.05600
C3058       C  0.75786669  0.87590374  0.05545424     0.00300
C3059       C  0.78845530  0.90071175  0.05061778    -0.08300
C3060       C  0.78289238  0.92845097  0.03584955    -0.05700
C3061       C  0.74755035  0.93273217  0.02636557     0.00300
C3062       C  0.71690156  0.90796970  0.03147149    -0.08200
C3063       C  0.67755875  0.91244864  0.02287223     0.62200
H3064       H  0.69994069  0.86019430  0.04975997     0.12900
H3065       H  0.80583166  0.94798256  0.03206858     0.12900
C3066       C  0.82639736  0.89827357  0.06134366     0.62400
F3067       F  0.67741854  0.90536101  0.00166235    -0.22700
F3068       F  0.66617994  0.94815216  0.02683918    -0.20100
F3069       F  0.65134035  0.88807531  0.03182936    -0.19700
F3070       F  0.84040929  0.86345535  0.05785076    -0.19800
F3071       F  0.82215142  0.90430847  0.08258069    -0.20100
F3072       F  0.85269429  0.92443013  0.05407393    -0.22800
C3073       C  0.72387337  0.59156549  0.97736642    -0.05600
C3074       C  0.75512040  0.56915434  0.97944404     0.00300
C3075       C  0.78878286  0.57809250  0.96818710    -0.08300
C3076       C  0.78845516  0.60643124  0.95342428    -0.05700
C3077       C  0.75687138  0.62809983  0.95087370     0.00300
C3078       C  0.72451334  0.62166682  0.96362944    -0.08200
C3079       C  0.69061038  0.64601419  0.96245665     0.62200
H3080       H  0.69865032  0.58484892  0.98632376     0.12900
H3081       H  0.81349262  0.61220632  0.94403669     0.12900
C3082       C  0.82595819  0.55938057  0.97138513     0.62400
F3083       F  0.66064496  0.63256203  0.97444299    -0.22700
F3084       F  0.67840798  0.64777096  0.94201632    -0.20100
F3085       F  0.70068933  0.68136864  0.96978812    -0.19700
F3086       F  0.83512813  0.53975014  0.95342163    -0.19800
F3087       F  0.82522863  0.53543329  0.98797724    -0.20100
F3088       F  0.85411629  0.58632015  0.97536207    -0.22800
C3089       C  0.77166365  0.90560581  0.98124251    -0.05600
C3090       C  0.74261633  0.93047954  0.97849968     0.00300
C3091       C  0.71598133  0.92329700  0.96219005    -0.08300
C3092       C  0.72161859  0.89362980  0.94817486    -0.05700
C3093       C  0.75059018  0.86877602  0.95087663     0.00300
C3094       C  0.77509052  0.87380655  0.96827360    -0.08200
C3095       C  0.80516728  0.84647326  0.97294930     0.62200
H3096       H  0.79223798  0.91167919  0.99339929     0.12900
H3097       H  0.70241406  0.88924593  0.93510681     0.12900
C3098       C  0.68122415  0.94591560  0.95878680     0.62400
F3099       F  0.82755520  0.85837011  0.98965947    -0.22700
F3100       F  0.82820197  0.84213678  0.95574573    -0.20100
F3101       F  0.78821024  0.81255705  0.97788313    -0.19700
F3102       F  0.68756715  0.96891930  0.94201328    -0.19800
F3103       F  0.67184356  0.96719258  0.97611034    -0.20100
F3104       F  0.65033961  0.92231225  0.95435360    -0.22800
C3105       C  0.96616957  0.67821813  0.71230291    -0.05600
C3106       C  0.99861834  0.68493282  0.72455368     0.00300
C3107       C  0.51954981  0.65565240  0.72836111    -0.08300
C3108       C  0.51890837  0.62774758  0.71260278    -0.05700
C3109       C  0.99457865  0.62599170  0.69481143     0.00300
C3110       C  0.96309905  0.64842171  0.69790569    -0.08200
C3111       C  0.92614656  0.64048723  0.68647093     0.62200
H3112       H  0.94364505  0.69758708  0.71350140     0.12900
H3113       H  0.53815500  0.60518467  0.71328544     0.12900
C3114       C  0.54404331  0.65127940  0.74742537     0.62400
F3115       F  0.89772936  0.66249815  0.69402526    -0.22700
F3116       F  0.91462726  0.60378384  0.68913614    -0.20100
F3117       F  0.93080390  0.64713831  0.66544326    -0.19700
F3118       F  0.52116044  0.64642250  0.76476141    -0.19800
F3119       F  0.56789917  0.68198699  0.75039345    -0.20100
F3120       F  0.56616636  0.62063368  0.74556792    -0.22800
C3121       C  0.98606814  0.85568426  0.72796309    -0.05600
C3122       C  0.00680461  0.82444182  0.72192341     0.00300
C3123       C  0.02901810  0.82707569  0.70316978    -0.08300
C3124       C  0.02442834  0.85732452  0.69023182    -0.05700
C3125       C  0.00085710  0.88622657  0.69543001     0.00300
C3126       C  0.98191747  0.88609132  0.71484648    -0.08200
C3127       C  0.95578326  0.91663226  0.72121767     0.62200
H3128       H  0.97309112  0.85675883  0.74318931     0.12900
H3129       H  0.04002433  0.85854129  0.67560595     0.12900
C3130       C  0.56517400  0.80045509  0.69731135     0.62400
F3131       F  0.93640541  0.90857504  0.73948691    -0.22700
F3132       F  0.92944223  0.92079934  0.70562071    -0.20100
F3133       F  0.47942305  0.94996985  0.72243757    -0.19700
F3134       F  0.04436275  0.78300383  0.67682811    -0.19800
F3135       F  0.57331099  0.77494525  0.71195312    -0.20100
F3136       F  0.59862618  0.82009019  0.69299874    -0.22800
C3137       C  0.56299019  0.73495371  0.79800647    -0.05600
C3138       C  0.57346496  0.74860253  0.77837765     0.00300
C3139       C  0.61288911  0.75387969  0.77392454    -0.08300
C3140       C  0.63931104  0.75011129  0.79005591    -0.05700
C3141       C  0.62877626  0.73836403  0.81007738     0.00300
C3142       C  0.58979175  0.72844676  0.81370383    -0.08200
C3143       C  0.57581098  0.71047752  0.83371953     0.62200
H3144       H  0.53318566  0.73007978  0.80121766     0.12900
H3145       H  0.66887348  0.75678431  0.78694985     0.12900
C3146       C  0.62843414  0.76075734  0.75215567     0.62400
F3147       F  0.53871745  0.69702410  0.83201891    -0.22700
F3148       F  0.57733948  0.73616044  0.85004362    -0.20100
F3149       F  0.59773888  0.68074391  0.83820276    -0.19700
F3150       F  0.62803326  0.79804992  0.74764132    -0.19800
F3151       F  0.60766943  0.74000848  0.73764700    -0.20100
F3152       F  0.66542251  0.74991867  0.75030874    -0.22800
C3153       C  0.94676945  0.76860474  0.79806048    -0.05600
C3154       C  0.94054701  0.74983132  0.77903127     0.00300
C3155       C  0.90432059  0.73321573  0.77478509    -0.08300
C3156       C  0.87568847  0.73522261  0.79014794    -0.05700
C3157       C  0.88184987  0.75393659  0.80939696     0.00300
C3158       C  0.91803563  0.77193793  0.81315532    -0.08200
C3159       C  0.92639312  0.79651417  0.83232075     0.62200
H3160       H  0.97435729  0.78201389  0.80064133     0.12900
H3161       H  0.84825577  0.72174117  0.78728460     0.12900
C3162       C  0.89614010  0.71304221  0.75422871     0.62400
F3163       F  0.95995723  0.81724782  0.83025768    -0.22700
F3164       F  0.92970095  0.77494590  0.84976064    -0.20100
F3165       F  0.89778281  0.82117959  0.83524388    -0.19700
F3166       F  0.92059996  0.68434521  0.75181839    -0.19800
F3167       F  0.90095839  0.73732477  0.73790738    -0.20100
F3168       F  0.85950701  0.69807682  0.75336698    -0.22800
C3169       C  0.80778949  0.51544029  0.70787794    -0.05600
C3170       C  0.81590820  0.99753958  0.72670140     0.00300
C3171       C  0.85377184  0.98747844  0.73110776    -0.08300
C3172       C  0.88166132  0.99136960  0.71540044    -0.05700
C3173       C  0.87403374  0.00568258  0.69574592     0.00300
C3174       C  0.83611353  0.52016989  0.69261054    -0.08200
C3175       C  0.82679408  0.54157610  0.67325540     0.62200
H3176       H  0.77925161  0.52308265  0.70439137     0.12900
H3177       H  0.90990923  0.98259082  0.71845938     0.12900
C3178       C  0.86649635  0.97152370  0.75163897     0.62400
F3179       F  0.79548454  0.56287398  0.67642603    -0.22700
F3180       F  0.82304057  0.01478557  0.65609834    -0.20100
F3181       F  0.85668095  0.56563748  0.66824175    -0.19700
F3182       F  0.86496928  0.93318176  0.75000553    -0.19800
F3183       F  0.84161800  0.48869268  0.76944276    -0.20100
F3184       F  0.90345184  0.98314273  0.75601443    -0.22800
C3185       C  0.69007814  0.98972796  0.70468964    -0.05600
C3186       C  0.68348098  0.49964862  0.72382509     0.00300
C3187       C  0.65282577  0.52301709  0.72718986    -0.08300
C3188       C  0.62443276  0.52436426  0.71174435    -0.05700
C3189       C  0.62588287  0.50290242  0.69313122     0.00300
C3190       C  0.66252464  0.99011963  0.68885134    -0.08200
C3191       C  0.67233173  0.97279430  0.66781838     0.62200
H3192       H  0.71735802  0.97816705  0.70156103     0.12900
H3193       H  0.60093967  0.54236250  0.71407695     0.12900
C3194       C  0.65011484  0.54572162  0.74725065     0.62400
F3195       F  0.70660832  0.95557972  0.66810596    -0.22700
F3196       F  0.66769319  0.47474476  0.65361150    -0.20100
F3197       F  0.64489795  0.94601790  0.66236033    -0.19700
F3198       F  0.68140423  0.56972941  0.74904208    -0.19800
F3199       F  0.64405922  0.00542665  0.76628969    -0.20100
F3200       F  0.61820969  0.56659414  0.74778890    -0.22800
C3201       C  0.71731615  0.56663165  0.79340567    -0.05600
C3202       C  0.74694195  0.56229610  0.77906472     0.00300
C3203       C  0.77587105  0.59077609  0.77789989    -0.08300
C3204       C  0.77586519  0.62042202  0.79274520    -0.05700
C3205       C  0.74795091  0.62252447  0.80831159     0.00300
C3206       C  0.71695876  0.59641273  0.80784203    -0.08200
C3207       C  0.68378173  0.59928134  0.82272777     0.62200
H3208       H  0.69500968  0.54521347  0.79388046     0.12900
H3209       H  0.79845898  0.64159736  0.79280341     0.12900
C3210       C  0.80728885  0.58970598  0.76177079     0.62400
F3211       F  0.65396686  0.57513765  0.81706304    -0.22700
F3212       F  0.67073085  0.63495563  0.82288838    -0.20100
F3213       F  0.69505189  0.59038132  0.84251435    -0.19700
F3214       F  0.79254488  0.59324040  0.74200627    -0.19800
F3215       F  0.82538848  0.55673417  0.76289950    -0.20100
F3216       F  0.83415839  0.61823764  0.76489058    -0.22800
C3217       C  0.71833804  0.92560109  0.79921513    -0.05600
C3218       C  0.73701935  0.92177085  0.77987241     0.00300
C3219       C  0.74872581  0.88552529  0.77408001    -0.08300
C3220       C  0.75128515  0.85876173  0.78970362    -0.05700
C3221       C  0.73777089  0.86490659  0.81008479     0.00300
C3222       C  0.71820865  0.89798472  0.81439981    -0.08200
C3223       C  0.69694506  0.90472165  0.83474935     0.62200
H3224       H  0.70420649  0.95105265  0.80266583     0.12900
H3225       H  0.76332452  0.83234088  0.78570443     0.12900
C3226       C  0.75580116  0.87205338  0.75182650     0.62400
F3227       F  0.67332083  0.93429556  0.83345555    -0.22700
F3228       F  0.72233882  0.91291012  0.85070495    -0.20100
F3229       F  0.67463801  0.87362992  0.83956425    -0.19700
F3230       F  0.79407016  0.86750989  0.74884981    -0.19800
F3231       F  0.74261285  0.89564253  0.73703431    -0.20100
F3232       F  0.73698279  0.83803064  0.74850173    -0.22800
C3233       C  0.59619196  0.72791581  0.02534801    -0.05600
C3234       C  0.57498472  0.75979574  0.02400143     0.00300
C3235       C  0.58550988  0.79227287  0.03584550    -0.08300
C3236       C  0.61652980  0.79100024  0.04932475    -0.05700
C3237       C  0.63635073  0.75848087  0.05142806     0.00300
C3238       C  0.62664985  0.72650561  0.03918013    -0.08200
C3239       C  0.64702318  0.69060073  0.04162520     0.62200
H3240       H  0.58746446  0.70347093  0.01625673     0.12900
H3241       H  0.62451737  0.81489393  0.05912484     0.12900
C3242       C  0.56361068  0.82771101  0.03491992     0.62400
F3243       F  0.63103502  0.66194004  0.02945141    -0.22700
F3244       F  0.64536011  0.67994888  0.06225558    -0.20100
F3245       F  0.68439653  0.69584057  0.03569260    -0.19700
F3246       F  0.55794772  0.83720002  0.01439032    -0.19800
F3247       F  0.58277124  0.85725147  0.04485513    -0.20100
F3248       F  0.52900479  0.82285573  0.04472638    -0.22800
C3249       C  0.93270967  0.72465647  0.04021877    -0.05600
C3250       C  0.93681127  0.75479534  0.02680809     0.00300
C3251       C  0.91088089  0.78368706  0.02809112    -0.08300
C3252       C  0.88021764  0.77977511  0.04196946    -0.05700
C3253       C  0.87752353  0.75060527  0.05617700     0.00300
C3254       C  0.90416805  0.72229966  0.05524205    -0.08200
C3255       C  0.90458907  0.68889083  0.06928097     0.62200
H3256       H  0.95309950  0.70295883  0.03936226     0.12900
H3257       H  0.85964892  0.80121285  0.04280670     0.12900
C3258       C  0.91537442  0.81994632  0.01651601     0.62400
F3259       F  0.90381776  0.65678291  0.05706539    -0.22700
F3260       F  0.87446983  0.68650338  0.08286871    -0.20100
F3261       F  0.93759812  0.69048123  0.08082711    -0.19700
F3262       F  0.88868916  0.82029727  0.00084996    -0.19800
F3263       F  0.95092001  0.82555814  0.00790119    -0.20100
F3264       F  0.90961257  0.84945702  0.03018110    -0.22800
C3265       C  0.59964220  0.77615723  0.97663077    -0.05600
C3266       C  0.57402794  0.74574323  0.97792900     0.00300
C3267       C  0.58110743  0.71199960  0.96716764    -0.08300
C3268       C  0.61220436  0.71119000  0.95363851    -0.05700
C3269       C  0.63684788  0.74225232  0.95157900     0.00300
C3270       C  0.63166084  0.77480143  0.96383233    -0.08200
C3271       C  0.65897659  0.80830885  0.96291634     0.62200
H3272       H  0.59378375  0.80130443  0.98535870     0.12900
H3273       H  0.61676284  0.68663134  0.94406636     0.12900
C3274       C  0.55517460  0.67753106  0.96897127     0.62400
F3275       F  0.64672441  0.83789910  0.97492113    -0.22700
F3276       F  0.66276798  0.81994170  0.94255601    -0.20100
F3277       F  0.69382320  0.79891642  0.97042084    -0.19700
F3278       F  0.52428617  0.68046536  0.95605516    -0.19800
F3279       F  0.54272993  0.67312807  0.98930794    -0.20100
F3280       F  0.57371786  0.64582183  0.96314882    -0.22800
C3281       C  0.93447670  0.78550548  0.96601704    -0.05600
C3282       C  0.93608796  0.75474500  0.97903258     0.00300
C3283       C  0.90789981  0.72583305  0.97756386    -0.08300
C3284       C  0.87785672  0.73001792  0.96376712    -0.05700
C3285       C  0.87747337  0.75978991  0.95001539     0.00300
C3286       C  0.90576538  0.78859338  0.95134052    -0.08200
C3287       C  0.90749893  0.82308495  0.93802611     0.62200
H3288       H  0.95671447  0.80709266  0.96698464     0.12900
H3289       H  0.85612854  0.70798816  0.96238465     0.12900
C3290       C  0.90934170  0.68883413  0.98841442     0.62400
F3291       F  0.90996688  0.85432699  0.95096308    -0.22700
F3292       F  0.87635449  0.82623163  0.92536100    -0.20100
F3293       F  0.93942905  0.82263836  0.92552666    -0.19700
F3294       F  0.87983474  0.68573617  0.00255743    -0.19800
F3295       F  0.94287856  0.68404668  0.99875869    -0.20100
F3296       F  0.90525831  0.66035020  0.97366285    -0.22800
C3297       C  0.85400129  0.02352308  0.31056511    -0.05600
C3298       C  0.87448937  0.99119643  0.30875959     0.00300
C3299       C  0.86504036  0.96435477  0.29309977    -0.08300
C3300       C  0.83522350  0.97126096  0.27937874    -0.05700
C3301       C  0.81621354  0.00483538  0.28028042     0.00300
C3302       C  0.82526116  0.03129194  0.29648045    -0.08200
C3303       C  0.80459960  0.06726425  0.29962578     0.62200
H3304       H  0.86127542  0.04320614  0.32307829     0.12900
H3305       H  0.82670531  0.95042407  0.26776134     0.12900
C3306       C  0.88553564  0.92825190  0.29145150     0.62400
F3307       F  0.80953409  0.08169195  0.31969079    -0.22700
F3308       F  0.76614580  0.06152164  0.29654227    -0.20100
F3309       F  0.82624128  0.59775773  0.28687353    -0.19700
F3310       F  0.88249486  0.90996405  0.31018571    -0.19800
F3311       F  0.92757520  0.44191636  0.28491466    -0.20100
F3312       F  0.87618644  0.40879583  0.27409742    -0.22800
C3313       C  0.64945900  0.49945090  0.27181537    -0.05600
C3314       C  0.68388911  0.99378084  0.27911119     0.00300
C3315       C  0.68720352  0.97826221  0.29943180    -0.08300
C3316       C  0.65532887  0.97722729  0.31280045    -0.05700
C3317       C  0.62036292  0.99126493  0.30730378     0.00300
C3318       C  0.61770482  0.49791388  0.28531323    -0.08200
C3319       C  0.57975557  0.50974179  0.27726302     0.62200
H3320       H  0.64569064  0.50767698  0.25581969     0.12900
H3321       H  0.65753270  0.96525473  0.32808828     0.12900
C3322       C  0.72313175  0.96230664  0.30774025     0.62400
F3323       F  0.58205790  0.52207219  0.25695151    -0.22700
F3324       F  0.56693589  0.53857684  0.28962504    -0.20100
F3325       F  0.55158463  0.99451561  0.27804460    -0.19700
F3326       F  0.72653308  0.46655095  0.33012800    -0.19800
F3327       F  0.72971197  0.92905436  0.29751652    -0.20100
F3328       F  0.75318326  0.98713544  0.30530343    -0.22800
C3329       C  0.77709847  0.61638543  0.19503144    -0.05600
C3330       C  0.74455015  0.63666589  0.19459240     0.00300
C3331       C  0.71435280  0.62796365  0.20816160    -0.08300
C3332       C  0.71794311  0.59836704  0.22194663    -0.05700
C3333       C  0.75071306  0.57687110  0.22264880     0.00300
C3334       C  0.78129951  0.58661276  0.20852544    -0.08200
C3335       C  0.81935730  0.56786230  0.20715710     0.62200
H3336       H  0.79975732  0.62465586  0.18447738     0.12900
H3337       H  0.69392084  0.59175692  0.23155846     0.12900
C3338       C  0.67797087  0.64899396  0.20741995     0.62400
F3339       F  0.84192175  0.57882659  0.22387276    -0.22700
F3340       F  0.83911248  0.57725801  0.18917490    -0.20100
F3341       F  0.81498661  0.52996292  0.20643502    -0.19700
F3342       F  0.66358310  0.64746035  0.18733832    -0.19800
F3343       F  0.68517962  0.68570182  0.21330551    -0.20100
F3344       F  0.65051243  0.63429035  0.22067387    -0.22800
C3345       C  0.78762631  0.89823933  0.19981697    -0.05600
C3346       C  0.75447734  0.87614698  0.19777645     0.00300
C3347       C  0.72320363  0.88304036  0.21095690    -0.08300
C3348       C  0.72535741  0.91405099  0.22479116    -0.05700
C3349       C  0.75803808  0.93735407  0.22606862     0.00300
C3350       C  0.79048108  0.92801803  0.21421537    -0.08200
C3351       C  0.82879513  0.94807910  0.21596414     0.62200
H3352       H  0.81174781  0.89206067  0.19001665     0.12900
H3353       H  0.70092074  0.92137459  0.23399698     0.12900
C3354       C  0.68745879  0.85849664  0.20982201     0.62400
F3355       F  0.85622095  0.92248499  0.21916587    -0.22700
F3356       F  0.83081364  0.97333666  0.23233743    -0.20100
F3357       F  0.83686318  0.96632052  0.19760414    -0.19700
F3358       F  0.69567407  0.82292385  0.21542243    -0.19800
F3359       F  0.67327678  0.85770255  0.18969988    -0.20100
F3360       F  0.65968047  0.87096546  0.22320079    -0.22800
loop_ 
_geom_bond_atom_site_label_1 
_geom_bond_atom_site_label_2 
_geom_bond_distance 
_geom_bond_site_symmetry_2 
_ccdc_geom_bond_type 
C1            C2   1.555       .  S
C1            C7   1.533       .  S
C1            C5   1.527       .  S
C1          C813   1.547       .  S
C2            H9   1.082       .  S
C2          C843   1.379       .  D
C3            C4   1.544       .  S
C3          C842   1.376       .  D
C3          C794   1.511       .  S
C4            C8   1.543       .  S
C4            C6   1.550       .  S
C4           H10   1.102       .  S
C5           H11   1.083       .  S
C5          C846   1.361       .  D
C6          C845   1.365       .  D
C6          C781   1.496       .  S
C7          H852   1.084       .  S
C7          C848   1.359   1_545  D
C8          C847   1.359       .  D
C8          C829   1.483       .  S
H12         C847   1.087       .  S
C13          C14   1.417   1_554  A
C13        C1698   1.401       .  A
C13         C730   1.484       .  S
C14        C1695   1.399       .  A
C14         C762   1.474       .  S
C15          C16   1.394       .  A
C15        C1694   1.400   1_455  A
C15          H20   1.085       .  S
C16          C17   1.408   1_556  A
C16         C746   1.473       .  S
C17          C18   1.392       .  A
C17         C714   1.472       .  S
C18        C1693   1.395   1_455  A
C18          H19   1.085       .  S
C21          C22   1.526       .  S
C21          C27   1.548       .  S
C21          C25   1.537       .  S
C21         C698   1.543       .  S
C22          H29   1.087       .  S
C22         C863   1.362       .  D
C23          C24   1.550   1_565  S
C23         C862   1.363       .  D
C23         C666   1.495       .  S
C24          C28   1.544       .  S
C24          C26   1.558   1_545  S
C24          H30   1.106       .  S
C25          H31   1.079       .  S
C25         C866   1.368       .  D
C26         C865   1.368       .  D
C26        C1490   1.500       .  S
C27         H872   1.086       .  S
C27         C868   1.366       .  D
C28         C867   1.368   1_545  D
C28         C682   1.503       .  S
H32         C867   1.086       .  S
C33          C39   1.534       .  S
C33          C37   1.528       .  S
C33        C1714   1.544   1_455  S
C33        C2282   1.545       .  S
C34        C1713   1.546       .  S
C34          H41   1.083       .  S
C34          C35   1.362       .  D
C35        C1716   1.551       .  S
C35         C634   1.498       .  S
C36          C40   1.544       .  S
C36          C38   1.559       .  S
C36        C1715   1.549   1_455  S
C36          H42   1.102       .  S
C37          H43   1.081       .  S
C37          C38   1.364       .  D
C38         C618   1.501       .  S
C39          H44   1.085       .  S
C39          C40   1.371       .  D
C40        C2266   1.502   1_455  S
C45          C46   1.419   1_554  A
C45         C890   1.410       .  A
C45         C541   1.496       .  S
C46         C887   1.408       .  A
C46         C570   1.494       .  S
C47          C48   1.408   1_565  A
C47         C886   1.411       .  A
C47          H52   1.084       .  S
C48          C49   1.419   1_556  A
C48         C554   1.496       .  S
C49          C50   1.408   1_545  A
C49         C525   1.495       .  S
C50         C885   1.407       .  A
C50          H51   1.083       .  S
O53         Zr65   2.435       .  S
O53          C55   1.287       .  A
O54         Zr91   2.402       .  S
O54          C55   1.281       .  A
C55         C765   1.461       .  S
O56         Zr68   2.441       .  S
O56          C58   1.287       .  A
O57         Zr92   2.442       .  S
O57          C58   1.291       .  A
C58         C701   1.496       .  S
O59         Zr68   2.449       .  S
O59          C61   1.290       .  A
O60         Zr91   2.438       .  S
O60          C61   1.287       .  A
C61         C573   1.490       .  S
O62         Zr65   2.435       .  S
O62          C64   1.285       .  A
O63         Zr92   2.479       .  S
O63          C64   1.297       .  A
C64         C637   1.504       .  S
Zr65         O66   2.432       .  S
Zr65         O67   2.436       .  S
Zr65         O71   2.372       .  S
Zr65         O72   2.378       .  S
Zr65         O95   2.377       .  S
Zr65         O97   2.373       .  S
O66         H109   0.990       .  S
O67         H108   0.990       .  S
O67         H112   0.990       .  S
Zr68         O69   2.434       .  S
Zr68         O70   2.435       .  S
Zr68         O72   2.378       .  S
Zr68         O71   2.373       .  S
Zr68         O96   2.362       .  S
Zr68         O98   2.369       .  S
O69         H110   0.990       .  S
O69         H113   0.990       .  S
O70         H103   0.990       .  S
O71         Zr91   2.383       .  S
O72         Zr92   2.394       .  S
O72          H99   0.966       .  S
O73         Zr85   2.460       .  S
O73          C75   1.291       .  A
O74         Zr92   2.441       .  S
O74          C75   1.289       .  A
C75         C685   1.487       .  S
O76         Zr88   2.440       .  S
O76          C78   1.287       .  A
O77         Zr91   2.403       .  S
O77          C78   1.281       .  A
C78         C749   1.464       .  S
O79         Zr88   2.430       .  S
O79          C81   1.284       .  A
O80         Zr92   2.449       .  S
O80          C81   1.293       .  A
C81         C621   1.499       .  S
O82         Zr85   2.464       .  S
O82          C84   1.292       .  A
O83         Zr91   2.423       .  S
O83          C84   1.285       .  A
C84         C557   1.483       .  S
Zr85         O86   2.435       .  S
Zr85         O87   2.433       .  S
Zr85         O93   2.376       .  S
Zr85         O94   2.371       .  S
Zr85         O97   2.372       .  S
Zr85         O95   2.378       .  S
O86         H106   0.989       .  S
O86         H111   0.990       .  S
O87         H107   0.990       .  S
Zr88         O89   2.433       .  S
Zr88         O90   2.437       .  S
Zr88         O94   2.362       .  S
Zr88         O93   2.371       .  S
Zr88         O98   2.372       .  S
Zr88         O96   2.358       .  S
O89         H105   0.990       .  S
O90         H104   0.990       .  S
O90         H114   0.989       .  S
Zr91         O94   2.381       .  S
Zr91         O96   2.376       .  S
Zr91         O97   2.387       .  S
Zr92         O93   2.403       .  S
Zr92         O95   2.391       .  S
Zr92         O98   2.393       .  S
O93         H101   0.965       .  S
O96         H100   0.965       .  S
O97         H102   0.966       .  S
O115       Zr127   2.463       .  S
O115        C117   1.292       .  A
O116       Zr153   2.416       .  S
O116        C117   1.284       .  A
C117        C826   1.477       .  S
O118       Zr130   2.432       .  S
O118        C120   1.286       .  A
O119       Zr154   2.396       .  S
O119        C120   1.280       .  A
C120        C717   1.456       .  S
O121       Zr130   2.424       .  S
O121        C123   1.281       .  A
O122       Zr153   2.459       .  S
O122        C123   1.296       .  A
C123        C490   1.509       .  S
O124       Zr127   2.452       .  S
O124        C126   1.290       .  A
O125       Zr154   2.449       .  S
O125        C126   1.291       .  A
C126        C538   1.485       .  S
Zr127       O128   2.434       .  S
Zr127       O129   2.435       .  S
Zr127       O133   2.372       .  S
Zr127       O134   2.376       .  S
Zr127       O157   2.381       .  S
Zr127       O159   2.371       .  S
O128        H171   0.990       .  S
O129        H170   0.990       .  S
O129        H174   0.990       .  S
Zr130       O131   2.435       .  S
Zr130       O132   2.436       .  S
Zr130       O134   2.364       .  S
Zr130       O133   2.377       .  S
Zr130       O158   2.372       .  S
Zr130       O160   2.363       .  S
O131        H172   0.990       .  S
O131        H175   0.990       .  S
O132        H165   0.990       .  S
O133       Zr153   2.384       .  S
O134       Zr154   2.390       .  S
O134        H161   0.966       .  S
O135       Zr147   2.453       .  S
O135        C137   1.290       .  A
O136       Zr154   2.416       .  S
O136        C137   1.284       .  A
C137        C733   1.476       .  S
O138       Zr150   2.444       .  S
O138        C140   1.290       .  A
O139       Zr153   2.416       .  S
O139        C140   1.284       .  A
C140        C810   1.481       .  S
O141       Zr150   2.446       .  S
O141        C143   1.289       .  A
O142       Zr154   2.449       .  S
O142        C143   1.290       .  A
C143        C522   1.490       .  S
O144       Zr147   2.427       .  S
O144        C146   1.286       .  A
O145       Zr153   2.462       .  S
O145        C146   1.293       .  A
C146        C509   1.486       .  S
Zr147       O148   2.434       .  S
Zr147       O149   2.434       .  S
Zr147       O155   2.369       .  S
Zr147       O156   2.376       .  S
Zr147       O159   2.379       .  S
Zr147       O157   2.366       .  S
O148        H168   0.990       .  S
O148        H173   0.990       .  S
O149        H169   0.990       .  S
Zr150       O151   2.435       .  S
Zr150       O152   2.437       .  S
Zr150       O156   2.369       .  S
Zr150       O155   2.375       .  S
Zr150       O160   2.368       .  S
Zr150       O158   2.371       .  S
O151        H167   0.990       .  S
O152        H166   0.990       .  S
O152        H176   0.990       .  S
Zr153       O156   2.386       .  S
Zr153       O158   2.387       .  S
Zr153       O159   2.391       .  S
Zr154       O155   2.382       .  S
Zr154       O157   2.383       .  S
Zr154       O160   2.383       .  S
O155        H163   0.966       .  S
O158        H162   0.966       .  S
O159        H164   0.966       .  S
O177       Zr189   2.442       .  S
O177       C1019   1.288       .  A
O178      Zr1895   2.462   1_455  S
O178       C1019   1.294       .  A
C179        C669   1.501       .  S
C179       O1017   1.287       .  A
C179       O1018   1.297       .  A
O180       Zr192   2.451       .  S
O180        C182   1.290       .  A
O181       Zr216   2.430       .  S
O181        C182   1.286       .  A
C182       C2141   1.484       .  S
O183       Zr192   2.448       .  S
O183        C185   1.289       .  A
O184      Zr1055   2.422       .  S
O184        C185   1.286       .  A
C185        C589   1.480       .  S
O186      Zr1029   2.441       .  S
O186        C188   1.289       .  A
O187      Zr1896   2.394   1_455  S
O187        C188   1.279   1_565  A
C188        C429   1.463       .  S
Zr189      O1026   2.450       .  S
Zr189       O191   2.434       .  S
Zr189      O1030   2.434       .  S
Zr189       O219   2.365       .  S
Zr189       O221   2.375       .  S
Zr189      O1035   2.380       .  S
Zr189      O1036   2.366       .  S
O190      Zr1029   2.434       .  S
O190        H233   0.990       .  S
O191        H232   0.988       .  S
O191        H236   0.990       .  S
Zr192       O194   2.433       .  S
Zr192      O1873   2.436       .  S
Zr192       O220   2.366       .  S
Zr192       O222   2.369       .  S
Zr192      O1876   2.365       .  S
Zr192      O1875   2.376       .  S
O193      Zr1872   2.436       .  S
O193        H234   0.990       .  S
O193        H237   0.990       .  S
O194        H227   0.990       .  S
O195      Zr1029   2.382       .  S
O195      Zr1872   2.371       .  S
O195      Zr2735   2.390   1_455  S
O196      Zr1029   2.366       .  S
O196      Zr1872   2.367       .  S
O196      Zr1896   2.389   1_445  S
O196        H223   0.966       .  S
O197       Zr209   2.428       .  S
O197        C199   1.285       .  A
O198      Zr1056   2.443       .  S
O198        C199   1.290       .  A
C199        C477   1.478       .  S
O200       Zr212   2.420       .  S
O200        C202   1.283       .  A
O201       Zr215   2.475       .  S
O201        C202   1.297       .  A
C202        C653   1.503       .  S
O203      Zr1052   2.448       .  S
O203       C1045   1.289       .  A
O204       Zr216   2.406   1_565  S
O204       C1045   1.281   1_565  A
C205        C442   1.463       .  S
C205       O1043   1.288       .  A
C205       O1044   1.281       .  A
O206       Zr209   2.429       .  S
O206        C208   1.286       .  A
O207       Zr215   2.427       .  S
O207        C208   1.286       .  A
C208        C605   1.482       .  S
Zr209       O210   2.435       .  S
Zr209      O1891   2.435       .  S
Zr209       O217   2.369       .  S
Zr209       O218   2.366       .  S
Zr209      O1901   2.365       .  S
Zr209      O1899   2.371       .  S
O210        H230   0.990       .  S
O210        H235   0.990       .  S
O211      Zr1889   2.434   1_455  S
O211        H231   0.990       .  S
Zr212      O1043   2.443       .  S
Zr212       O213   2.434       .  S
Zr212      O1054   2.433       .  S
Zr212       O218   2.381       .  S
Zr212       O217   2.367       .  S
Zr212      O1062   2.356       .  S
Zr212      O1060   2.363       .  S
O213        H229   0.990       .  S
O214      Zr1052   2.432       .  S
O214        H228   0.990       .  S
O214        H238   0.990       .  S
Zr215      O1858   2.472       .  S
Zr215      O1024   2.410       .  S
Zr215       O218   2.388       .  S
Zr215      O2715   2.395       .  S
Zr215      O1060   2.388       .  S
Zr215      O1901   2.385       .  S
Zr216      O1867   2.384       .  S
Zr216      O1038   2.445   1_545  S
Zr216       O222   2.377       .  S
Zr216      O1876   2.391       .  S
Zr216      O1057   2.377   1_545  S
Zr216      O2739   2.380   1_545  S
O217      Zr1056   2.383       .  S
O217        H225   0.966       .  S
O219      Zr1889   2.375   1_455  S
O219      Zr2736   2.374   1_455  S
O220      Zr1052   2.372       .  S
O220      Zr1055   2.392       .  S
O220        H224   0.966       .  S
O221      Zr1889   2.369   1_455  S
O221      Zr1895   2.390   1_455  S
O221        H226   0.965       .  S
O222      Zr1052   2.363       .  S
O239       Zr251   2.445       .  S
O239        C241   1.289       .  A
O240      Zr1117   2.410   1_545  S
O240        C241   1.283       .  A
C241        C346   1.475       .  S
O242       Zr254   2.443       .  S
O242       C1084   1.288       .  A
O243      Zr1958   2.405   1_455  S
O243       C1084   1.282       .  A
C244       C1234   1.459       .  S
C244       O1082   1.288       .  A
C244       O1083   1.281       .  A
O245       Zr254   2.451       .  S
O245       C1087   1.292       .  A
O246      Zr1957   2.441   1_455  S
O246       C1087   1.287       .  A
C247       C1637   1.508       .  S
C247       O1085   1.292       .  A
C247       O1086   1.286       .  A
O248       Zr251   2.441       .  S
O248       C1930   1.288       .  A
O249      Zr1118   2.445   1_545  S
O249       C1930   1.290       .  A
C250        C362   1.482       .  S
C250       O1928   1.287       .  A
C250       O1929   1.290       .  A
Zr251       O253   2.436       .  S
Zr251      O1932   2.435       .  S
Zr251       O281   2.374       .  S
Zr251       O283   2.368       .  S
Zr251      O1937   2.375       .  S
Zr251      O1938   2.373       .  S
O252      Zr1931   2.434   1_455  S
O252        H295   0.990       .  S
O253        H294   0.990       .  S
O253        H298   0.990       .  S
Zr254       O256   2.434       .  S
Zr254      O1095   2.437       .  S
Zr254       O282   2.371       .  S
Zr254       O284   2.371       .  S
Zr254      O1098   2.373       .  S
Zr254      O1097   2.370       .  S
O255      Zr1094   2.437   1_545  S
O255        H296   0.990       .  S
O255        H299   0.990       .  S
O256        H289   0.990       .  S
O257      Zr1931   2.375   1_455  S
O257      Zr1094   2.367   1_545  S
O257      Zr2797   2.385   1_445  S
O258      Zr1931   2.365   1_455  S
O258      Zr1094   2.375   1_545  S
O258      Zr2798   2.388   1_445  S
O258        H285   0.965       .  S
O259       Zr271   2.434       .  S
O259        C261   1.287       .  A
O260      Zr1118   2.414       .  S
O260       C1101   1.284       .  A
C261        C410   1.466       .  S
C261       O1100   1.284       .  A
O262       Zr274   2.439       .  S
O262        C264   1.287       .  A
O263       Zr277   2.428       .  S
O263        C264   1.288       .  A
C264        C330   1.485       .  S
O265       Zr274   2.453       .  S
O265        C267   1.289       .  A
O266       Zr278   2.436       .  S
O266        C267   1.287       .  A
C267        C378   1.482       .  S
O268       Zr271   2.437       .  S
O268        C270   1.286       .  A
O269       Zr277   2.428       .  S
O269        C270   1.287       .  A
C270        C778   1.470       .  S
Zr271       O272   2.435       .  S
Zr271      O1113   2.436       .  S
Zr271       O279   2.371       .  S
Zr271       O280   2.368       .  S
Zr271      O1123   2.369       .  S
Zr271      O1121   2.374       .  S
O272        H292   0.990       .  S
O272        H297   0.990       .  S
O273      Zr1111   2.437   1_545  S
O273        H293   0.990       .  S
Zr274       O275   2.432       .  S
Zr274      O1956   2.434       .  S
Zr274       O280   2.376       .  S
Zr274       O279   2.364       .  S
Zr274      O1964   2.365       .  S
Zr274      O1962   2.373       .  S
O275        H291   0.990       .  S
O276      Zr1954   2.437   1_455  S
O276        H290   0.990       .  S
O276        H300   0.990       .  S
Zr277      O1080   2.432       .  S
Zr277      O1926   2.446       .  S
Zr277       O280   2.385       .  S
Zr277      O2777   2.382       .  S
Zr277      O1962   2.384       .  S
Zr277      O1123   2.391       .  S
Zr278      O1923   2.399       .  S
Zr278      O1089   2.438       .  S
Zr278      O1100   2.413       .  S
Zr278       O279   2.382       .  S
Zr278      O2778   2.386       .  S
Zr278      O1121   2.380       .  S
Zr278      O1964   2.381       .  S
O279        H287   0.965       .  S
O281      Zr1111   2.373   1_545  S
O281      Zr1118   2.384   1_545  S
O282      Zr1954   2.371   1_455  S
O282      Zr1957   2.389   1_455  S
O282        H286   0.966       .  S
O283      Zr1111   2.367   1_545  S
O283      Zr1117   2.390   1_545  S
O283        H288   0.966       .  S
O284      Zr1954   2.369   1_455  S
O284      Zr1958   2.384   1_455  S
C301        C302   1.415       .  A
C301        C306   1.402       .  A
C301        C474   1.491       .  S
C302        C303   1.405       .  A
C302        C381   1.487       .  S
C303        C304   1.409       .  A
C303        H308   1.085       .  S
C304        C305   1.422       .  A
C304        C365   1.499       .  S
C305        C306   1.408       .  A
C305        C458   1.491       .  S
C306        H307   1.085       .  S
C309        C310   1.412       .  A
C309        C314   1.401       .  A
C309        C445   1.475       .  S
C310        C311   1.399       .  A
C310        C413   1.478       .  S
C311        C312   1.396       .  A
C311        H316   1.085       .  S
C312        C313   1.410       .  A
C312        C397   1.473       .  S
C313        C314   1.399       .  A
C313        C426   1.483       .  S
C314        H315   1.085       .  S
C317        C323   1.532       .  S
C317        C321   1.533   1_655  S
C317       C1998   1.553       .  S
C317        C349   1.559   1_655  S
C318       C1997   1.552       .  S
C318        H325   1.080       .  S
C318        C319   1.367       .  D
C319       C2000   1.543       .  S
C319        C506   1.494       .  S
C320        C324   1.543       .  S
C320        C322   1.551   1_655  S
C320       C1999   1.543       .  S
C320        H326   1.102       .  S
C321        H327   1.084       .  S
C321        C322   1.366       .  D
C322        C493   1.497       .  S
C323        H328   1.085       .  S
C323        C324   1.372       .  D
C324       C2013   1.500       .  S
C329        C334   1.410       .  A
C329       C2010   1.404   1_455  A
C329        H336   1.082       .  S
C330        C331   1.417       .  A
C330       C2009   1.404       .  A
C331        C338   1.520       .  S
C331        C332   1.401       .  A
C332        C333   1.409       .  A
C332        H337   1.082       .  S
C333       C2004   1.505       .  S
C333       C2014   1.425       .  A
C334        C335   1.519       .  S
C334       C2013   1.424   1_455  A
C335        F339   1.385       .  S
C335        F341   1.375       .  S
C335       F2020   1.381       .  S
C338        F342   1.383       .  S
C338        F343   1.382       .  S
C338        F344   1.385       .  S
F340       C2015   1.380       .  S
C345        C350   1.406       .  A
C345       C2026   1.393   1_455  A
C345        H352   1.083       .  S
C346        C347   1.410       .  A
C346       C2025   1.393       .  A
C347        C354   1.519       .  S
C347        C348   1.405       .  A
C348       C2029   1.415       .  A
C348        H353   1.072       .  S
C349        C350   1.442       .  A
C349       C2028   1.418   1_455  A
C350        C351   1.528       .  S
C351        F355   1.385       .  S
C351        F356   1.377       .  S
C351        F357   1.372       .  S
C354        F358   1.381       .  S
C354        F359   1.383       .  S
C354        F360   1.385       .  S
C361        C366   1.409       .  A
C361       C2042   1.403       .  A
C361        H368   1.085       .  S
C362        C363   1.422   1_655  A
C362       C2041   1.404       .  A
C363        C370   1.521       .  S
C363        C364   1.405       .  A
C364        C365   1.405   1_455  A
C364        H369   1.085       .  S
C365       C2046   1.422       .  A
C366        C367   1.513       .  S
C366       C2045   1.421       .  A
C367        F371   1.384       .  S
C367        F372   1.377       .  S
C367        F373   1.382       .  S
C370        F374   1.383       .  S
C370        F375   1.377       .  S
C370        F376   1.383       .  S
C377        C382   1.412       .  A
C377       C2058   1.402   1_455  A
C377        H384   1.083       .  S
C378        C379   1.413       .  A
C378       C2057   1.405       .  A
C379        C386   1.511       .  S
C379        C380   1.401       .  A
C380       C2061   1.398       .  A
C380        H385   1.080       .  S
C381        C382   1.419   1_655  A
C381       C2060   1.399       .  A
C382        C383   1.516       .  S
C383        F387   1.379       .  S
C383        F388   1.385       .  S
C383        F389   1.383       .  S
C386        F390   1.382       .  S
C386        F391   1.382       .  S
C386        F392   1.384       .  S
C393        C394   1.398       .  A
C393        C398   1.401       .  A
C393        H400   1.084       .  S
C394       C1235   1.414       .  A
C394       C1084   1.464       .  S
C395        C402   1.511       .  S
C395        C396   1.399       .  A
C395       C1234   1.414   1_545  A
C396       C1237   1.397   1_545  A
C396        H401   1.084       .  S
C397        C398   1.419       .  A
C397       C1236   1.399       .  A
C398        C399   1.521       .  S
C399        F403   1.385       .  S
C399        F404   1.382       .  S
C399       F1245   1.380       .  S
C402        F407   1.380       .  S
C402        F408   1.385       .  S
C402       F1246   1.381       .  S
F405       C1239   1.382       .  S
F406       C1242   1.382       .  S
C409        C414   1.402       .  A
C409       C1250   1.404   1_545  A
C409        H416   1.085       .  S
C410        C411   1.417       .  A
C410       C1249   1.402       .  A
C411        C418   1.521       .  S
C411        C412   1.397       .  A
C412        C413   1.402       .  A
C412        H417   1.084       .  S
C413       C1254   1.417       .  A
C414        C415   1.519       .  S
C414       C1253   1.413   1_545  A
C415        F419   1.383       .  S
C415        F420   1.381       .  S
C415        F421   1.381       .  S
C418        F422   1.383       .  S
C418        F423   1.378       .  S
C418        F424   1.383       .  S
C425        C426   1.402       .  A
C425        C430   1.406       .  A
C425        H432   1.081       .  S
C426       C1267   1.419       .  A
C427        C434   1.519       .  S
C427        C428   1.395       .  A
C427       C1266   1.415       .  A
C428        C429   1.399       .  A
C428        H433   1.085       .  S
C429       C1270   1.416   1_545  A
C430        C431   1.515       .  S
C430       C1269   1.418       .  A
C431        F435   1.385       .  S
C431        F437   1.377       .  S
C431       F1276   1.383       .  S
C434        F438   1.383       .  S
C434        F440   1.384       .  S
C434       F1279   1.383       .  S
F436       C1271   1.382       .  S
F439       C1274   1.379       .  S
C441        C442   1.400       .  A
C441        C446   1.404       .  A
C441        H448   1.085       .  S
C442       C1283   1.411       .  A
C443        C450   1.515       .  S
C443        C444   1.397       .  A
C443       C1282   1.411       .  A
C444       C1285   1.401   1_545  A
C444        H449   1.083       .  S
C445        C446   1.418       .  A
C445       C1284   1.403       .  A
C446        C447   1.517       .  S
C447        F451   1.383       .  S
C447        F452   1.380       .  S
C447       F1293   1.385       .  S
C450        F455   1.379       .  S
C450        F456   1.385       .  S
C450       F1294   1.381       .  S
F453       C1287   1.384       .  S
F454       C1290   1.382       .  S
C457        C458   1.408   1_455  A
C457        C462   1.411       .  A
C457        H464   1.082       .  S
C458       C2139   1.425       .  A
C459        C466   1.521       .  S
C459        C460   1.400       .  A
C459       C2138   1.424       .  A
C460       C2141   1.399       .  A
C460        H465   1.085       .  S
C461        C462   1.416   1_655  A
C461       C2140   1.399       .  A
C461       C1862   1.478       .  S
C462        C463   1.519       .  S
C463        F467   1.384       .  S
C463        F468   1.383       .  S
C463        F469   1.384       .  S
C466        F470   1.384       .  S
C466        F471   1.379       .  S
C466        F472   1.383       .  S
C473        C474   1.402   1_455  A
C473        C478   1.404       .  A
C473        H480   1.085       .  S
C474       C2155   1.421       .  A
C475        C482   1.518       .  S
C475        C476   1.408       .  A
C475       C2154   1.422       .  A
C476        C477   1.403       .  A
C476        H481   1.085       .  S
C477       C2158   1.422       .  A
C478        C479   1.521       .  S
C478       C2157   1.422   1_455  A
C479        F483   1.384       .  S
C479        F484   1.380       .  S
C479        F485   1.384       .  S
C482        F486   1.384       .  S
C482        F487   1.380       .  S
C482        F488   1.383       .  S
C489        C490   1.404       .  A
C489        C494   1.401       .  A
C489        H496   1.084       .  S
C490        C491   1.436       .  A
C491        C498   1.522       .  S
C491        C492   1.415       .  A
C492        C493   1.400       .  A
C492        H497   1.083       .  S
C493        C494   1.422       .  A
C494        C495   1.515       .  S
C495        F499   1.382       .  S
C495        F500   1.378       .  S
C495        F501   1.385       .  S
C498        F502   1.383       .  S
C498        F503   1.382       .  S
C498        F504   1.386       .  S
C505        C506   1.400       .  A
C505        C510   1.403       .  A
C505        H512   1.085       .  S
C506        C507   1.421       .  A
C507        C514   1.514       .  S
C507        C508   1.416       .  A
C508        C509   1.405       .  A
C508        H513   1.083       .  S
C509        C510   1.421       .  A
C510        C511   1.518       .  S
C511        F515   1.384       .  S
C511        F516   1.382       .  S
C511        F517   1.383       .  S
C514        F518   1.380       .  S
C514        F519   1.382       .  S
C514        F520   1.384       .  S
C521        C522   1.404       .  A
C521        C526   1.411       .  A
C521        H528   1.083       .  S
C522        C523   1.417       .  A
C523        C530   1.512       .  S
C523        C524   1.408       .  A
C524        C525   1.402       .  A
C524        H529   1.082       .  S
C525        C526   1.423       .  A
C526        C527   1.522       .  S
C527        F531   1.385       .  S
C527        F532   1.381       .  S
C527        F533   1.383       .  S
C530        F534   1.378       .  S
C530        F535   1.382       .  S
C530        F536   1.384       .  S
C537        C538   1.404       .  A
C537        C542   1.413       .  A
C537        H544   1.084       .  S
C538        C539   1.415       .  A
C539        C546   1.516       .  S
C539        C540   1.409       .  A
C540        C541   1.405       .  A
C540        H545   1.083       .  S
C541        C542   1.420       .  A
C542        C543   1.516       .  S
C543        F547   1.377   1_554  S
C543        F548   1.383       .  S
C543        F549   1.382       .  S
C546        F550   1.381       .  S
C546        F551   1.382       .  S
C546        F552   1.385       .  S
C553        C554   1.406       .  A
C553        C558   1.414       .  A
C553        H560   1.083       .  S
C554        C555   1.423       .  A
C555        C562   1.517       .  S
C555        C556   1.405       .  A
C556        C557   1.398       .  A
C556        H561   1.085       .  S
C557        C558   1.418       .  A
C558        C559   1.516       .  S
C559        F563   1.385       .  S
C559        F564   1.383       .  S
C559        F565   1.382       .  S
C562        F566   1.383       .  S
C562        F567   1.381       .  S
C562        F568   1.385       .  S
C569        C570   1.404       .  A
C569        C574   1.411       .  A
C569        H576   1.081       .  S
C570        C571   1.422       .  A
C571        C578   1.522       .  S
C571        C572   1.405       .  A
C572        C573   1.404       .  A
C572        H577   1.085       .  S
C573        C574   1.419       .  A
C574        C575   1.514       .  S
C575        F579   1.384       .  S
C575        F580   1.377       .  S
C575        F581   1.382       .  S
C578        F582   1.382       .  S
C578        F583   1.383       .  S
C578        F584   1.384       .  S
C585        C586   1.404       .  A
C585        C590   1.399       .  A
C585        H592   1.083       .  S
C586       C1720   1.495       .  S
C586       C2267   1.424       .  A
C587        C594   1.516       .  S
C587        C588   1.413       .  A
C587       C2266   1.424   1_455  A
C588       C2269   1.404   1_455  A
C588        H593   1.083       .  S
C589        C590   1.415       .  A
C589       C2268   1.403       .  A
C590        C591   1.517       .  S
C591        F595   1.385       .  S
C591        F596   1.383       .  S
C591        F597   1.380       .  S
C594        F598   1.381       .  S
C594        F599   1.376       .  S
C594        F600   1.383       .  S
C601        C602   1.417       .  A
C601        C606   1.409       .  A
C601        H608   1.076       .  S
C602       C1713   1.550       .  S
C602        C603   1.436       .  A
C603       C2290   1.520       .  S
C603        C604   1.401       .  A
C604        C605   1.396       .  A
C604        H609   1.086       .  S
C605        C606   1.410       .  A
C606        C607   1.516       .  S
C607        F611   1.384       .  S
C607        F612   1.383       .  S
C607       F2293   1.383       .  S
C610       C2283   1.522       .  S
C610        F615   1.369       .  S
C610        F616   1.385       .  S
C610       F2294   1.384       .  S
F613       C2287   1.383       .  S
F614       C2290   1.384       .  S
C617        C618   1.400       .  A
C617        C622   1.407       .  A
C617        H624   1.082       .  S
C618        C619   1.430       .  A
C619        C626   1.522       .  S
C619        C620   1.409       .  A
C620        C621   1.403       .  A
C620        H625   1.083       .  S
C621        C622   1.427       .  A
C622        C623   1.519       .  S
C623        F627   1.385       .  S
C623        F628   1.381       .  S
C623        F629   1.383       .  S
C626        F630   1.380       .  S
C626        F631   1.379       .  S
C626        F632   1.385       .  S
C633        C634   1.398       .  A
C633        C638   1.409       .  A
C633        H640   1.084       .  S
C634        C635   1.419       .  A
C635        C642   1.513       .  S
C635        C636   1.418       .  A
C636        C637   1.407       .  A
C636        H641   1.083       .  S
C637        C638   1.428       .  A
C638        C639   1.519       .  S
C639        F643   1.386       .  S
C639        F644   1.380       .  S
C639        F645   1.383       .  S
C642        F646   1.381       .  S
C642        F647   1.382       .  S
C642        F648   1.385       .  S
C649        C654   1.407       .  A
C649       C1490   1.401   1_545  A
C649        H656   1.082       .  S
C650        C866   1.506       .  S
C650        C651   1.431       .  A
C650       C1489   1.402       .  A
C651        C658   1.523       .  S
C651        C652   1.411       .  A
C652        C653   1.402       .  A
C652        H657   1.082       .  S
C653       C1494   1.429       .  A
C654        C655   1.518       .  S
C654       C1493   1.426       .  A
C655        F659   1.385       .  S
C655        F661   1.383       .  S
C655       F1500   1.383       .  S
C658        F662   1.382       .  S
C658        F664   1.385       .  S
C658       F1503   1.379       .  S
F660       C1495   1.382       .  S
F663       C1498   1.379       .  S
C665        C670   1.407       .  A
C665       C1506   1.397       .  A
C665        H672   1.084       .  S
C666        C667   1.418   1_565  A
C666       C1505   1.398       .  A
C667        C674   1.513       .  S
C667        C668   1.417       .  A
C668        C669   1.407       .  A
C668        H673   1.083       .  S
C669       C1510   1.426   1_545  A
C670        C671   1.517       .  S
C670       C1509   1.426       .  A
C671        F675   1.385       .  S
C671        F677   1.383       .  S
C671       F1516   1.381       .  S
C674        F678   1.382       .  S
C674        F680   1.382       .  S
C674       F1519   1.381       .  S
F676       C1511   1.380       .  S
F679       C1514   1.382       .  S
C681        C682   1.406       .  A
C681        C686   1.406       .  A
C681        H688   1.082       .  S
C682        C683   1.424       .  A
C683        C690   1.515       .  S
C683        C684   1.416       .  A
C684        C685   1.403       .  A
C684        H689   1.083       .  S
C685        C686   1.414       .  A
C686        C687   1.517       .  S
C687        F691   1.385       .  S
C687        F692   1.384       .  S
C687        F693   1.378       .  S
C690        F694   1.380       .  S
C690        F695   1.375       .  S
C690        F696   1.384       .  S
C697        C698   1.407       .  A
C697        C702   1.405       .  A
C697        H704   1.081       .  S
C698        C699   1.428       .  A
C699        C706   1.520       .  S
C699        C700   1.410       .  A
C700        C701   1.406       .  A
C700        H705   1.084       .  S
C701        C702   1.423       .  A
C702        C703   1.520       .  S
C703        F707   1.385       .  S
C703        F708   1.382       .  S
C703        F709   1.384       .  S
C706        F710   1.383       .  S
C706        F711   1.381       .  S
C706        F712   1.385       .  S
C713        C714   1.401       .  A
C713        C718   1.399       .  A
C713        H720   1.080       .  S
C714        C715   1.420       .  A
C715        C722   1.524       .  S
C715        C716   1.399       .  A
C716        C717   1.398       .  A
C716        H721   1.084       .  S
C717        C718   1.411       .  A
C718        C719   1.518       .  S
C719        F723   1.385       .  S
C719        F724   1.383       .  S
C719        F725   1.382       .  S
C722        F726   1.382       .  S
C722        F727   1.384       .  S
C722        F728   1.380       .  S
C729        C730   1.404       .  A
C729        C734   1.400       .  A
C729        H736   1.085       .  S
C730        C731   1.417       .  A
C731        C738   1.517       .  S
C731        C732   1.406       .  A
C732        C733   1.404       .  A
C732        H737   1.082       .  S
C733        C734   1.418       .  A
C734        C735   1.519       .  S
C735        F739   1.384       .  S
C735        F740   1.377       .  S
C735        F741   1.383       .  S
C738        F742   1.380       .  S
C738        F743   1.381       .  S
C738        F744   1.384       .  S
C745        C746   1.399       .  A
C745        C750   1.399       .  A
C745        H752   1.081       .  S
C746        C747   1.418       .  A
C747        C754   1.522       .  S
C747        C748   1.403       .  A
C748        C749   1.401       .  A
C748        H753   1.083       .  S
C749        C750   1.414       .  A
C750        C751   1.518       .  S
C751        F755   1.384       .  S
C751        F756   1.382       .  S
C751        F757   1.382       .  S
C754        F758   1.381       .  S
C754        F759   1.383       .  S
C754        F760   1.385       .  S
C761        C762   1.403       .  A
C761        C766   1.395       .  A
C761        H768   1.085       .  S
C762        C763   1.418       .  A
C763        C770   1.518       .  S
C763        C764   1.405       .  A
C764        C765   1.403       .  A
C764        H769   1.085       .  S
C765        C766   1.414       .  A
C766        C767   1.521       .  S
C767        F771   1.384       .  S
C767        F772   1.381       .  S
C767        F773   1.382       .  S
C770        F774   1.381   1_556  S
C770        F775   1.379   1_556  S
C770        F776   1.384       .  S
C777        C778   1.396       .  A
C777        C782   1.403       .  A
C777        H784   1.084       .  S
C778        C779   1.409       .  A
C779        C786   1.517       .  S
C779        C780   1.408       .  A
C780        C781   1.410       .  A
C780        H785   1.081       .  S
C781        C782   1.430       .  A
C782        C783   1.526       .  S
C783        F787   1.385       .  S
C783        F788   1.381       .  S
C783       F1629   1.382       .  S
C786        F790   1.382       .  S
C786       F1631   1.383       .  S
C786       F1632   1.385       .  S
F789       C1623   1.382       .  S
F791       C1626   1.383       .  S
F792       C1626   1.385       .  S
C793        C798   1.415       .  A
C793       C1634   1.412       .  A
C793        H800   1.082   1_565  S
C794        C795   1.425       .  A
C794       C1633   1.408       .  A
C795        C802   1.520       .  S
C795        C796   1.409       .  A
C796        C797   1.409       .  A
C796        H801   1.081       .  S
C797       C1638   1.427       .  A
C797       C1087   1.512       .  S
C798        C799   1.521       .  S
C798       C1637   1.424       .  A
C799        F803   1.385   1_565  S
C799        F804   1.383   1_565  S
C799       F1645   1.383       .  S
C802        F807   1.379       .  S
C802        F808   1.375       .  S
C802       F1646   1.385       .  S
F805       C1639   1.383       .  S
F806       C1642   1.385       .  S
C809        C810   1.394       .  A
C809        C814   1.399       .  A
C809        H816   1.085       .  S
C810        C811   1.414       .  A
C811        C818   1.520       .  S
C811        C812   1.412       .  A
C812        C813   1.417       .  A
C812        H817   1.076       .  S
C813        C814   1.437       .  A
C814        C815   1.525       .  S
C815        F819   1.371       .  S
C815        F820   1.386       .  S
C815        F821   1.382       .  S
C818        F822   1.383       .  S
C818        F823   1.383       .  S
C818        F824   1.384       .  S
C825        C826   1.397       .  A
C825        C830   1.401       .  A
C825        H832   1.085       .  S
C826        C827   1.417       .  A
C827        C834   1.516       .  S
C827        C828   1.412       .  A
C828        C829   1.405       .  A
C828        H833   1.084       .  S
C829        C830   1.420       .  A
C830        C831   1.515       .  S
C831        F835   1.384       .  S
C831        F836   1.374       .  S
C831        F837   1.382       .  S
C834        F838   1.382       .  S
C834        F839   1.383       .  S
C834        F840   1.385       .  S
C841        C842   1.559       .  S
C841        C847   1.530       .  S
C841        C845   1.531       .  S
C841       C1653   1.550       .  S
C842        H849   1.080       .  S
C843        C844   1.552   1_545  S
C843       C1634   1.520   1_545  S
C844        C848   1.543       .  S
C844        C846   1.548   1_565  S
C844        H850   1.099       .  S
C845        H851   1.081       .  S
C846       C1621   1.488       .  S
C848       C1669   1.487       .  S
C853        C854   1.416   1_554  A
C853       C2538   1.396       .  A
C853       C1570   1.472       .  S
C854       C2535   1.397       .  A
C854       C1602   1.479       .  S
C855       C2534   1.397   1_455  A
C855        C856   1.393       .  A
C855        H860   1.085       .  S
C856        C857   1.404   1_556  A
C856       C1586   1.470       .  S
C857        C858   1.392       .  A
C857       C1554   1.468       .  S
C858       C2533   1.396   1_455  A
C858        H859   1.085       .  S
C861        C862   1.528       .  S
C861        C867   1.550       .  S
C861        C865   1.535       .  S
C861       C1538   1.544       .  S
C862        H869   1.087       .  S
C863        C864   1.552       .  S
C863       C1506   1.492       .  S
C864        C868   1.541       .  S
C864        C866   1.558       .  S
C864        H870   1.107       .  S
C865        H871   1.080       .  S
C868       C1522   1.495       .  S
C873       C2554   1.543   1_455  S
C873        C879   1.530       .  S
C873        C877   1.532       .  S
C873       C3122   1.540       .  S
C874       C2553   1.550       .  S
C874        H881   1.083       .  S
C874        C875   1.364       .  D
C875       C2556   1.545       .  S
C875       C1474   1.495       .  S
C876       C2555   1.552   1_455  S
C876        C880   1.545       .  S
C876        C878   1.565       .  S
C876        H882   1.108       .  S
C877        H883   1.078       .  S
C877        C878   1.368       .  D
C878       C1458   1.520       .  S
C879        H884   1.086   1_455  S
C879        C880   1.362       .  D
C880       C3106   1.488   1_455  S
C885        C886   1.418   1_554  A
C885       C1381   1.495       .  S
C886       C1410   1.495       .  S
C887        C888   1.403       .  A
C887        H892   1.083       .  S
C888        C889   1.414   1_556  A
C888       C1394   1.492       .  S
C889        C890   1.410       .  A
C889       C1365   1.493       .  S
C890        H891   1.084       .  S
O893       Zr905   2.439       .  S
O893        C895   1.288       .  A
O894       Zr931   2.402       .  S
O894        C895   1.281       .  A
C895       C1605   1.463       .  S
O896       Zr908   2.447       .  S
O896        C898   1.289       .  A
O897       Zr932   2.433       .  S
O897        C898   1.289       .  A
C898       C1541   1.492       .  S
O899       Zr908   2.456       .  S
O899        C901   1.291       .  A
O900       Zr931   2.431       .  S
O900        C901   1.286       .  A
C901       C1413   1.492       .  S
O902       Zr905   2.427       .  S
O902        C904   1.285       .  A
O903       Zr932   2.479       .  S
O903        C904   1.298       .  A
C904       C1477   1.499       .  S
Zr905       O906   2.432       .  S
Zr905       O907   2.436       .  S
Zr905       O911   2.368       .  S
Zr905       O912   2.378       .  S
Zr905       O935   2.374       .  S
Zr905       O937   2.364       .  S
O906        H949   0.990       .  S
O907        H948   0.990       .  S
O907        H952   0.990       .  S
Zr908       O909   2.434       .  S
Zr908       O910   2.435       .  S
Zr908       O912   2.375       .  S
Zr908       O911   2.373       .  S
Zr908       O936   2.363       .  S
Zr908       O938   2.370       .  S
O909        H950   0.990       .  S
O909        H953   0.990       .  S
O910        H943   0.990       .  S
O911       Zr931   2.379       .  S
O912       Zr932   2.393       .  S
O912        H939   0.966       .  S
O913       Zr925   2.454       .  S
O913        C915   1.291       .  A
O914       Zr932   2.431       .  S
O914        C915   1.288       .  A
C915       C1525   1.478       .  S
O916       Zr928   2.430       .  S
O916        C918   1.285       .  A
O917       Zr931   2.401       .  S
O917        C918   1.281       .  A
C918       C1589   1.460       .  S
O919       Zr928   2.425       .  S
O919        C921   1.282       .  A
O920       Zr932   2.463       .  S
O920        C921   1.296       .  A
C921       C1461   1.500       .  S
O922       Zr925   2.458       .  S
O922        C924   1.291       .  A
O923       Zr931   2.424       .  S
O923        C924   1.285       .  A
C924       C1397   1.481       .  S
Zr925       O926   2.432       .  S
Zr925       O927   2.436       .  S
Zr925       O933   2.377       .  S
Zr925       O934   2.375       .  S
Zr925       O937   2.368       .  S
Zr925       O935   2.373       .  S
O926        H946   0.990       .  S
O926        H951   0.990       .  S
O927        H947   0.990       .  S
Zr928       O929   2.435       .  S
Zr928       O930   2.436       .  S
Zr928       O934   2.368       .  S
Zr928       O933   2.369       .  S
Zr928       O938   2.370       .  S
Zr928       O936   2.363       .  S
O929        H945   0.990       .  S
O930        H944   0.990       .  S
O930        H954   0.990       .  S
Zr931       O934   2.381       .  S
Zr931       O936   2.378       .  S
Zr931       O937   2.382       .  S
Zr932       O933   2.395       .  S
Zr932       O935   2.389       .  S
Zr932       O938   2.386       .  S
O933        H941   0.966       .  S
O936        H940   0.965       .  S
O937        H942   0.966       .  S
O955       Zr967   2.461       .  S
O955        C957   1.292       .  A
O956       Zr993   2.420       .  S
O956        C957   1.285       .  A
C957       C1666   1.479       .  S
O958       Zr970   2.428       .  S
O958        C960   1.284       .  A
O959       Zr994   2.404       .  S
O959        C960   1.281       .  A
C960       C1557   1.456       .  S
O961       Zr970   2.418       .  S
O961        C963   1.280       .  A
O962       Zr993   2.452       .  S
O962        C963   1.294       .  A
C963       C1330   1.504       .  S
O964       Zr967   2.458       .  S
O964        C966   1.291       .  A
O965       Zr994   2.437       .  S
O965        C966   1.288       .  A
C966       C1378   1.483       .  S
Zr967       O968   2.436       .  S
Zr967       O969   2.434       .  S
Zr967       O973   2.370       .  S
Zr967       O974   2.373       .  S
Zr967       O997   2.380       .  S
Zr967       O999   2.377       .  S
O968       H1011   0.990       .  S
O969       H1010   0.990       .  S
O969       H1014   0.990       .  S
Zr970       O971   2.434       .  S
Zr970       O972   2.435       .  S
Zr970       O974   2.364       .  S
Zr970       O973   2.375       .  S
Zr970       O998   2.367       .  S
Zr970      O1000   2.361       .  S
O971       H1012   0.990       .  S
O971       H1015   0.990       .  S
O972       H1005   0.990       .  S
O973       Zr993   2.387       .  S
O974       Zr994   2.387       .  S
O974       H1001   0.966       .  S
O975       Zr987   2.450       .  S
O975        C977   1.288       .  A
O976       Zr994   2.409       .  S
O976        C977   1.283       .  A
C977       C1573   1.470       .  S
O978       Zr990   2.450       .  S
O978        C980   1.292       .  A
O979       Zr993   2.420       .  S
O979        C980   1.285       .  A
C980       C1650   1.480       .  S
O981       Zr990   2.450       .  S
O981        C983   1.289       .  A
O982       Zr994   2.439       .  S
O982        C983   1.288       .  A
C983       C1362   1.485       .  S
O984       Zr987   2.436       .  S
O984        C986   1.287       .  A
O985       Zr993   2.470       .  S
O985        C986   1.295       .  A
C986       C1349   1.495       .  S
Zr987       O988   2.436       .  S
Zr987       O989   2.435       .  S
Zr987       O995   2.376       .  S
Zr987       O996   2.379       .  S
Zr987       O999   2.372       .  S
Zr987       O997   2.369       .  S
O988       H1008   0.989       .  S
O988       H1013   0.990       .  S
O989       H1009   0.990       .  S
Zr990       O991   2.434       .  S
Zr990       O992   2.438       .  S
Zr990       O996   2.374       .  S
Zr990       O995   2.374       .  S
Zr990      O1000   2.365       .  S
Zr990       O998   2.368       .  S
O991       H1007   0.990       .  S
O992       H1006   0.990       .  S
O992       H1016   0.990       .  S
Zr993       O996   2.386       .  S
Zr993       O998   2.389       .  S
Zr993       O999   2.391       .  S
Zr994       O995   2.385       .  S
Zr994       O997   2.387       .  S
Zr994      O1000   2.378       .  S
O995       H1003   0.965       .  S
O998       H1002   0.966       .  S
O999       H1004   0.966       .  S
O1017     Zr1029   2.439       .  S
O1018     Zr2735   2.474   1_455  S
C1019      C1509   1.499       .  S
O1020     Zr1032   2.455       .  S
O1020      C1022   1.290       .  A
O1021     Zr1056   2.428       .  S
O1021      C1022   1.286       .  A
C1022      C2981   1.483       .  S
O1023     Zr1032   2.456       .  S
O1023      C1025   1.291       .  A
O1024      C1025   1.285       .  A
C1025      C1429   1.476       .  S
O1026      C1028   1.290       .  A
O1027     Zr2736   2.411   1_455  S
O1027      C1028   1.282       .  A
C1028      C1269   1.476       .  S
Zr1029     O1031   2.435   1_545  S
Zr1029     O1059   2.363   1_545  S
Zr1029     O1061   2.372   1_545  S
O1030      H1073   0.990       .  S
O1031      H1072   0.989       .  S
O1031      H1076   0.990       .  S
Zr1032     O2713   2.438       .  S
Zr1032     O1034   2.432       .  S
Zr1032     O2716   2.369       .  S
Zr1032     O2715   2.375       .  S
Zr1032     O1060   2.369       .  S
Zr1032     O1062   2.369       .  S
O1033     Zr2712   2.435   1_455  S
O1033      H1074   0.990       .  S
O1033      H1077   0.990       .  S
O1034      H1067   0.990       .  S
O1035     Zr2712   2.372   1_455  S
O1035     Zr1895   2.390   1_455  S
O1036     Zr2712   2.374   1_455  S
O1036     Zr2736   2.389   1_455  S
O1036      H1063   0.966       .  S
O1037     Zr1049   2.435       .  S
O1037      C1039   1.286       .  A
O1038      C1039   1.290       .  A
C1039      C1317   1.480       .  S
O1040     Zr1052   2.425   1_565  S
O1040      C1042   1.284   1_565  A
O1041     Zr1055   2.464       .  S
O1041      C1042   1.295       .  A
C1042      C1493   1.499       .  S
O1044     Zr1056   2.402       .  S
C1045      C1282   1.465       .  S
O1046     Zr1049   2.434       .  S
O1046      C1048   1.288       .  A
O1047     Zr1055   2.424   1_565  S
O1047      C1048   1.286       .  A
C1048      C1445   1.482       .  S
Zr1049     O1050   2.436       .  S
Zr1049     O2731   2.434       .  S
Zr1049     O1057   2.367       .  S
Zr1049     O1058   2.367       .  S
Zr1049     O2741   2.376       .  S
Zr1049     O2739   2.375       .  S
O1050      H1070   0.990       .  S
O1050      H1075   0.990       .  S
O1051     Zr2729   2.435   1_455  S
O1051      H1071   0.990       .  S
Zr1052     O1053   2.434   1_545  S
Zr1052     O1058   2.377   1_545  S
Zr1052     O1057   2.361   1_545  S
O1053      H1069   0.990       .  S
O1054      H1068   0.990       .  S
O1054      H1078   0.989       .  S
Zr1055     O2698   2.473       .  S
Zr1055     O1875   2.390       .  S
Zr1055     O1058   2.390   1_545  S
Zr1055     O2741   2.390   1_545  S
Zr1056     O2707   2.400       .  S
Zr1056     O2716   2.387       .  S
Zr1056     O1899   2.371       .  S
Zr1056     O1062   2.372       .  S
O1057      H1065   0.966       .  S
O1059     Zr2729   2.369   1_455  S
O1059     Zr1896   2.372   1_455  S
O1060      H1064   0.965       .  S
O1061     Zr2729   2.369   1_455  S
O1061     Zr2735   2.391   1_465  S
O1061      H1066   0.966       .  S
O1079     Zr1091   2.433       .  S
O1079      C1081   1.288       .  A
O1080      C1081   1.287       .  A
C1081      C1186   1.484       .  S
O1082     Zr1094   2.440       .  S
O1083     Zr2798   2.400   1_455  S
O1085     Zr1094   2.449       .  S
O1086     Zr2797   2.435   1_455  S
O1088     Zr1091   2.449       .  S
O1088      C2770   1.289       .  A
O1089      C2770   1.288       .  A
C1090      C1202   1.485   1_655  S
C1090      O2768   1.287       .  A
C1090      O2769   1.291       .  A
Zr1091     O2772   2.433       .  S
Zr1091     O1093   2.436       .  S
Zr1091     O2777   2.381       .  S
Zr1091     O2778   2.369       .  S
Zr1091     O1121   2.367       .  S
Zr1091     O1123   2.367       .  S
O1092     Zr2771   2.434   1_455  S
O1092      H1135   0.990       .  S
O1093      H1134   0.990       .  S
O1093      H1138   0.990       .  S
Zr1094     O1096   2.435       .  S
Zr1094     O1122   2.369       .  S
Zr1094     O1124   2.372       .  S
O1095      H1136   0.990       .  S
O1095      H1139   0.990       .  S
O1096      H1129   0.990       .  S
O1097     Zr2771   2.377   1_455  S
O1097     Zr1957   2.385   1_455  S
O1098     Zr2771   2.370   1_455  S
O1098     Zr1958   2.386   1_455  S
O1098      H1125   0.967       .  S
O1099     Zr1111   2.434       .  S
O1099      C1101   1.287       .  A
C1101      C1250   1.462       .  S
O1102     Zr1114   2.436       .  S
O1102      C1104   1.285       .  A
O1103     Zr1117   2.431       .  S
O1103      C1104   1.288       .  A
C1104      C1170   1.488       .  S
O1105     Zr1114   2.445       .  S
O1105      C1107   1.288       .  A
O1106     Zr1118   2.450       .  S
O1106      C1107   1.290       .  A
C1107      C1218   1.485       .  S
O1108     Zr1111   2.439       .  S
O1108      C1110   1.287       .  A
O1109     Zr1117   2.432       .  S
O1109      C1110   1.287       .  A
C1110      C1618   1.476       .  S
Zr1111     O1112   2.434       .  S
Zr1111     O1119   2.371       .  S
Zr1111     O1120   2.375       .  S
O1112      H1132   0.990       .  S
O1112      H1137   0.990       .  S
O1113      H1133   0.990       .  S
Zr1114     O1115   2.433       .  S
Zr1114     O2796   2.435       .  S
Zr1114     O1120   2.373       .  S
Zr1114     O1119   2.363       .  S
Zr1114     O2804   2.369       .  S
Zr1114     O2802   2.372       .  S
O1115      H1131   0.990       .  S
O1116     Zr2794   2.435   1_455  S
O1116      H1130   0.990       .  S
O1116      H1140   0.990       .  S
Zr1117     O2766   2.443       .  S
Zr1117     O1937   2.388   1_565  S
Zr1117     O1120   2.380       .  S
Zr1117     O2802   2.383       .  S
Zr1118     O2763   2.397       .  S
Zr1118     O1938   2.390   1_565  S
Zr1118     O1119   2.380       .  S
Zr1118     O2804   2.383       .  S
O1119      H1127   0.965       .  S
O1122     Zr2794   2.371   1_455  S
O1122     Zr2797   2.390   1_455  S
O1122      H1126   0.966       .  S
O1123      H1128   0.966       .  S
O1124     Zr2794   2.366   1_455  S
O1124     Zr2798   2.387   1_455  S
C1141      C1142   1.413       .  A
C1141      C1146   1.404       .  A
C1141      C1314   1.491       .  S
C1142      C1143   1.404       .  A
C1142      C1221   1.485       .  S
C1143      C1144   1.409       .  A
C1143      H1148   1.085       .  S
C1144      C1145   1.423       .  A
C1144      C1205   1.499       .  S
C1145      C1146   1.411       .  A
C1145      C1298   1.496       .  S
C1146      H1147   1.084       .  S
C1149      C1150   1.408   1_565  A
C1149      C1154   1.396   1_565  A
C1149      C1285   1.470       .  S
C1150      C1151   1.392       .  A
C1150      C1253   1.462   1_545  S
C1151      C1152   1.387       .  A
C1151      H1156   1.085       .  S
C1152      C1153   1.405       .  A
C1152      C1237   1.466   1_545  S
C1153      C1154   1.398       .  A
C1153      C1266   1.468       .  S
C1154      H1155   1.085       .  S
C1157      C2838   1.553   1_455  S
C1157      C1163   1.531   1_455  S
C1157      C1161   1.529       .  S
C1157      C1189   1.556       .  S
C1158      C2837   1.554       .  S
C1158      H1165   1.082       .  S
C1158      C1159   1.367       .  D
C1159      C2840   1.542       .  S
C1159      C1346   1.498       .  S
C1160      C2839   1.548   1_455  S
C1160      C1164   1.549   1_455  S
C1160      C1162   1.553       .  S
C1160      H1166   1.102   1_455  S
C1161      H1167   1.084       .  S
C1161      C1162   1.364       .  D
C1162      C1333   1.493       .  S
C1163      H1168   1.086       .  S
C1163      C1164   1.371       .  D
C1164      C2853   1.507       .  S
C1169      C2850   1.401   1_455  A
C1169      C1174   1.409       .  A
C1169      H1176   1.083       .  S
C1170      C2849   1.404       .  A
C1170      C1171   1.419       .  A
C1171      C1178   1.521       .  S
C1171      C1172   1.403       .  A
C1172      C1173   1.409       .  A
C1172      H1177   1.082       .  S
C1173      C2844   1.507       .  S
C1173      C2854   1.425       .  A
C1174      C1175   1.517       .  S
C1174      C2853   1.426   1_455  A
C1175      F1179   1.386       .  S
C1175      F2860   1.380       .  S
C1175      F1181   1.376       .  S
C1178      F1182   1.382       .  S
C1178      F1183   1.382       .  S
C1178      F1184   1.385       .  S
F1180      C2855   1.381       .  S
C1185      C2866   1.394       .  A
C1185      C1190   1.407       .  A
C1185      H1192   1.083       .  S
C1186      C2865   1.398       .  A
C1186      C1187   1.412       .  A
C1187      C1194   1.518       .  S
C1187      C1188   1.407       .  A
C1188      C2869   1.415       .  A
C1188      H1193   1.074       .  S
C1189      C2868   1.416   1_455  A
C1189      C1190   1.441       .  A
C1190      C1191   1.528       .  S
C1191      F1195   1.385       .  S
C1191      F1196   1.374       .  S
C1191      F1197   1.378       .  S
C1194      F1198   1.380       .  S
C1194      F1199   1.383       .  S
C1194      F1200   1.385       .  S
C1201      C2882   1.404       .  A
C1201      C1206   1.411       .  A
C1201      H1208   1.085       .  S
C1202      C2881   1.404   1_455  A
C1202      C1203   1.423       .  A
C1203      C1210   1.520       .  S
C1203      C1204   1.405       .  A
C1204      C1205   1.405   1_455  A
C1204      H1209   1.085       .  S
C1205      C2886   1.421       .  A
C1206      C1207   1.514       .  S
C1206      C2885   1.421       .  A
C1207      F1211   1.383       .  S
C1207      F1212   1.376       .  S
C1207      F1213   1.382       .  S
C1210      F1214   1.384       .  S
C1210      F1215   1.377       .  S
C1210      F1216   1.383       .  S
C1217      C2898   1.401   1_455  A
C1217      C1222   1.412       .  A
C1217      H1224   1.083       .  S
C1218      C2897   1.404       .  A
C1218      C1219   1.413       .  A
C1219      C1226   1.511       .  S
C1219      C1220   1.404       .  A
C1220      C2901   1.399       .  A
C1220      H1225   1.080       .  S
C1221      C2900   1.398       .  A
C1221      C1222   1.420   1_655  A
C1222      C1223   1.516       .  S
C1223      F1227   1.379       .  S
C1223      F1228   1.385       .  S
C1223      F1229   1.383       .  S
C1226      F1230   1.382       .  S
C1226      F1231   1.383       .  S
C1226      F1232   1.385       .  S
C1233      C1234   1.397       .  A
C1233      C1238   1.397       .  A
C1233      H1240   1.085       .  S
C1235      C1242   1.514       .  S
C1235      C1236   1.402       .  A
C1236      H1241   1.082       .  S
C1237      C1238   1.417       .  A
C1238      C1239   1.520       .  S
C1239      F1243   1.384       .  S
C1239      F1244   1.383       .  S
C1242      F1247   1.381       .  S
C1242      F1248   1.384       .  S
C1249      C1254   1.404       .  A
C1249      H1256   1.085       .  S
C1250      C1251   1.419       .  A
C1251      C1258   1.518       .  S
C1251      C1252   1.392       .  A
C1252      C1253   1.397       .  A
C1252      H1257   1.085       .  S
C1254      C1255   1.515       .  S
C1255      F1259   1.382       .  S
C1255      F1260   1.382       .  S
C1255      F1261   1.379       .  S
C1258      F1262   1.384       .  S
C1258      F1263   1.377       .  S
C1258      F1264   1.383       .  S
C1265      C1266   1.400   1_565  A
C1265      C1270   1.398       .  A
C1265      H1272   1.082       .  S
C1267      C1274   1.521       .  S
C1267      C1268   1.402       .  A
C1268      C1269   1.399       .  A
C1268      H1273   1.084       .  S
C1270      C1271   1.515       .  S
C1271      F1275   1.386       .  S
C1271      F1277   1.375       .  S
C1274      F1278   1.383       .  S
C1274      F1280   1.385       .  S
C1281      C1282   1.401   1_565  A
C1281      C1286   1.405       .  A
C1281      H1288   1.085       .  S
C1283      C1290   1.517       .  S
C1283      C1284   1.397       .  A
C1284      H1289   1.082       .  S
C1285      C1286   1.418       .  A
C1286      C1287   1.520       .  S
C1287      F1291   1.383       .  S
C1287      F1292   1.381       .  S
C1290      F1295   1.380       .  S
C1290      F1296   1.385       .  S
C1297      C1298   1.407   1_455  A
C1297      C1302   1.413       .  A
C1297      H1304   1.082       .  S
C1298      C2979   1.425       .  A
C1299      C1306   1.523       .  S
C1299      C2978   1.427       .  A
C1299      C1300   1.404       .  A
C1300      C2981   1.400       .  A
C1300      H1305   1.085       .  S
C1301      C2980   1.401       .  A
C1301      C1302   1.419   1_655  A
C1301      C2702   1.488       .  S
C1302      C1303   1.518       .  S
C1303      F1307   1.385       .  S
C1303      F1308   1.383       .  S
C1303      F1309   1.383       .  S
C1306      F1310   1.384       .  S
C1306      F1311   1.379       .  S
C1306      F1312   1.383       .  S
C1313      C1314   1.401   1_455  A
C1313      C1318   1.404       .  A
C1313      H1320   1.085       .  S
C1314      C2995   1.423       .  A
C1315      C1322   1.518       .  S
C1315      C2994   1.422       .  A
C1315      C1316   1.410       .  A
C1316      C1317   1.405       .  A
C1316      H1321   1.085       .  S
C1317      C2998   1.421       .  A
C1318      C1319   1.519       .  S
C1318      C2997   1.421   1_455  A
C1319      F1323   1.382       .  S
C1319      F1324   1.380       .  S
C1319      F1325   1.384       .  S
C1322      F1326   1.384       .  S
C1322      F1327   1.381       .  S
C1322      F1328   1.383       .  S
C1329      C1330   1.403       .  A
C1329      C1334   1.400       .  A
C1329      H1336   1.083       .  S
C1330      C1331   1.435       .  A
C1331      C1338   1.521       .  S
C1331      C1332   1.412       .  A
C1332      C1333   1.398       .  A
C1332      H1337   1.083       .  S
C1333      C1334   1.421       .  A
C1334      C1335   1.514       .  S
C1335      F1339   1.383       .  S
C1335      F1340   1.375       .  S
C1335      F1341   1.384       .  S
C1338      F1342   1.383       .  S
C1338      F1343   1.382       .  S
C1338      F1344   1.385       .  S
C1345      C1346   1.399       .  A
C1345      C1350   1.406       .  A
C1345      H1352   1.085       .  S
C1346      C1347   1.421       .  A
C1347      C1354   1.515       .  S
C1347      C1348   1.417       .  A
C1348      C1349   1.406       .  A
C1348      H1353   1.083       .  S
C1349      C1350   1.424       .  A
C1350      C1351   1.518       .  S
C1351      F1355   1.385       .  S
C1351      F1356   1.383       .  S
C1351      F1357   1.381       .  S
C1354      F1358   1.379       .  S
C1354      F1359   1.382       .  S
C1354      F1360   1.384       .  S
C1361      C1362   1.403       .  A
C1361      C1366   1.407       .  A
C1361      H1368   1.084       .  S
C1362      C1363   1.416       .  A
C1363      C1370   1.513       .  S
C1363      C1364   1.409       .  A
C1364      C1365   1.403       .  A
C1364      H1369   1.079       .  S
C1365      C1366   1.419       .  A
C1366      C1367   1.518       .  S
C1367      F1371   1.384       .  S
C1367      F1372   1.382       .  S
C1367      F1373   1.383       .  S
C1370      F1374   1.379       .  S
C1370      F1375   1.383       .  S
C1370      F1376   1.383       .  S
C1377      C1378   1.403       .  A
C1377      C1382   1.412       .  A
C1377      H1384   1.084       .  S
C1378      C1379   1.414       .  A
C1379      C1386   1.516       .  S
C1379      C1380   1.409       .  A
C1380      C1381   1.406       .  A
C1380      H1385   1.083       .  S
C1381      C1382   1.418       .  A
C1382      C1383   1.516       .  S
C1383      F1387   1.378       .  S
C1383      F1388   1.382       .  S
C1383      F1389   1.382       .  S
C1386      F1390   1.382       .  S
C1386      F1391   1.382       .  S
C1386      F1392   1.384       .  S
C1393      C1394   1.405       .  A
C1393      C1398   1.411       .  A
C1393      H1400   1.083       .  S
C1394      C1395   1.421       .  A
C1395      C1402   1.522       .  S
C1395      C1396   1.408       .  A
C1396      C1397   1.401       .  A
C1396      H1401   1.083       .  S
C1397      C1398   1.418       .  A
C1398      C1399   1.520       .  S
C1399      F1403   1.384       .  S
C1399      F1404   1.384       .  S
C1399      F1405   1.383       .  S
C1402      F1406   1.381       .  S
C1402      F1407   1.382       .  S
C1402      F1408   1.384       .  S
C1409      C1410   1.405       .  A
C1409      C1414   1.412       .  A
C1409      H1416   1.080       .  S
C1410      C1411   1.420       .  A
C1411      C1418   1.521       .  S
C1411      C1412   1.404       .  A
C1412      C1413   1.404       .  A
C1412      H1417   1.085       .  S
C1413      C1414   1.422       .  A
C1414      C1415   1.517       .  S
C1415      F1419   1.385       .  S
C1415      F1420   1.378       .  S
C1415      F1421   1.383       .  S
C1418      F1422   1.382       .  S
C1418      F1423   1.383       .  S
C1418      F1424   1.385       .  S
C1425      C1426   1.406       .  A
C1425      C1430   1.399       .  A
C1425      H1432   1.082       .  S
C1426      C2560   1.494       .  S
C1426      C3107   1.419       .  A
C1427      C1434   1.514       .  S
C1427      C3106   1.417   1_455  A
C1427      C1428   1.410       .  A
C1428      C3109   1.403   1_455  A
C1428      H1433   1.083       .  S
C1429      C3108   1.403       .  A
C1429      C1430   1.413       .  A
C1430      C1431   1.517       .  S
C1431      F1435   1.385       .  S
C1431      F1436   1.384       .  S
C1431      F1437   1.379       .  S
C1434      F1438   1.382       .  S
C1434      F1439   1.377       .  S
C1434      F1440   1.384       .  S
C1441      C1442   1.412       .  A
C1441      C1446   1.406       .  A
C1441      H1448   1.076       .  S
C1442      C2553   1.548       .  S
C1442      C1443   1.437       .  A
C1443      C3130   1.520       .  S
C1443      C1444   1.403       .  A
C1444      C1445   1.396       .  A
C1444      H1449   1.086       .  S
C1445      C1446   1.412       .  A
C1446      C1447   1.515       .  S
C1447      F1451   1.383       .  S
C1447      F1452   1.384       .  S
C1447      F3133   1.382       .  S
C1450      C3123   1.524       .  S
C1450      F3134   1.384       .  S
C1450      F1455   1.367       .  S
C1450      F1456   1.385       .  S
F1453      C3127   1.383       .  S
F1454      C3130   1.384       .  S
C1457      C1458   1.408       .  A
C1457      C1462   1.414       .  A
C1457      H1464   1.081       .  S
C1458      C1459   1.437       .  A
C1459      C1466   1.519       .  S
C1459      C1460   1.407       .  A
C1460      C1461   1.397       .  A
C1460      H1465   1.084       .  S
C1461      C1462   1.426       .  A
C1462      C1463   1.520       .  S
C1463      F1467   1.385       .  S
C1463      F1468   1.382       .  S
C1463      F1469   1.383       .  S
C1466      F1470   1.382       .  S
C1466      F1471   1.370       .  S
C1466      F1472   1.386       .  S
C1473      C1474   1.396       .  A
C1473      C1478   1.407       .  A
C1473      H1480   1.084       .  S
C1474      C1475   1.419       .  A
C1475      C1482   1.512       .  S
C1475      C1476   1.417       .  A
C1476      C1477   1.406       .  A
C1476      H1481   1.083       .  S
C1477      C1478   1.427       .  A
C1478      C1479   1.518       .  S
C1479      F1483   1.385       .  S
C1479      F1484   1.381       .  S
C1479      F1485   1.384       .  S
C1482      F1486   1.381       .  S
C1482      F1487   1.382       .  S
C1482      F1488   1.384       .  S
C1489      C1494   1.410       .  A
C1489      H1496   1.082       .  S
C1490      C1491   1.429       .  A
C1491      C1498   1.522       .  S
C1491      C1492   1.409       .  A
C1492      C1493   1.402   1_565  A
C1492      H1497   1.081       .  S
C1494      C1495   1.521       .  S
C1495      F1499   1.385       .  S
C1495      F1501   1.383       .  S
C1498      F1502   1.382       .  S
C1498      F1504   1.385       .  S
C1505      C1510   1.408       .  A
C1505      H1512   1.084       .  S
C1506      C1507   1.417       .  A
C1507      C1514   1.513       .  S
C1507      C1508   1.416       .  A
C1508      C1509   1.408       .  A
C1508      H1513   1.083       .  S
C1510      C1511   1.517       .  S
C1511      F1515   1.385       .  S
C1511      F1517   1.384       .  S
C1514      F1518   1.382       .  S
C1514      F1520   1.383       .  S
C1521      C1522   1.405       .  A
C1521      C1526   1.403       .  A
C1521      H1528   1.082       .  S
C1522      C1523   1.421       .  A
C1523      C1530   1.514       .  S
C1523      C1524   1.411       .  A
C1524      C1525   1.401       .  A
C1524      H1529   1.083       .  S
C1525      C1526   1.413       .  A
C1526      C1527   1.516       .  S
C1527      F1531   1.385       .  S
C1527      F1532   1.383       .  S
C1527      F1533   1.378       .  S
C1530      F1534   1.380       .  S
C1530      F1535   1.374       .  S
C1530      F1536   1.384       .  S
C1537      C1538   1.407       .  A
C1537      C1542   1.404       .  A
C1537      H1544   1.082       .  S
C1538      C1539   1.429       .  A
C1539      C1546   1.520       .  S
C1539      C1540   1.410       .  A
C1540      C1541   1.406       .  A
C1540      H1545   1.084       .  S
C1541      C1542   1.421       .  A
C1542      C1543   1.519       .  S
C1543      F1547   1.385       .  S
C1543      F1548   1.382       .  S
C1543      F1549   1.384       .  S
C1546      F1550   1.383       .  S
C1546      F1551   1.381       .  S
C1546      F1552   1.385       .  S
C1553      C1554   1.403       .  A
C1553      C1558   1.402       .  A
C1553      H1560   1.083       .  S
C1554      C1555   1.416       .  A
C1555      C1562   1.524       .  S
C1555      C1556   1.398       .  A
C1556      C1557   1.398       .  A
C1556      H1561   1.084       .  S
C1557      C1558   1.411       .  A
C1558      C1559   1.517       .  S
C1559      F1563   1.384       .  S
C1559      F1564   1.383       .  S
C1559      F1565   1.382       .  S
C1562      F1566   1.381       .  S
C1562      F1567   1.382       .  S
C1562      F1568   1.380       .  S
C1569      C1570   1.403       .  A
C1569      C1574   1.396       .  A
C1569      H1576   1.086       .  S
C1570      C1571   1.413       .  A
C1571      C1578   1.519       .  S
C1571      C1572   1.404       .  A
C1572      C1573   1.406       .  A
C1572      H1577   1.084       .  S
C1573      C1574   1.419       .  A
C1574      C1575   1.520       .  S
C1575      F1579   1.384       .  S
C1575      F1580   1.376       .  S
C1575      F1581   1.384       .  S
C1578      F1582   1.381       .  S
C1578      F1583   1.380       .  S
C1578      F1584   1.383       .  S
C1585      C1586   1.400       .  A
C1585      C1590   1.399       .  A
C1585      H1592   1.078       .  S
C1586      C1587   1.416       .  A
C1587      C1594   1.519       .  S
C1587      C1588   1.398       .  A
C1588      C1589   1.398       .  A
C1588      H1593   1.085       .  S
C1589      C1590   1.415       .  A
C1590      C1591   1.519       .  S
C1591      F1595   1.384       .  S
C1591      F1596   1.383       .  S
C1591      F1597   1.381       .  S
C1594      F1598   1.383       .  S
C1594      F1599   1.383       .  S
C1594      F1600   1.384       .  S
C1601      C1602   1.406       .  A
C1601      C1606   1.398       .  A
C1601      H1608   1.085       .  S
C1602      C1603   1.417       .  A
C1603      C1610   1.517       .  S
C1603      C1604   1.405       .  A
C1604      C1605   1.403       .  A
C1604      H1609   1.085       .  S
C1605      C1606   1.413       .  A
C1606      C1607   1.522       .  S
C1607      F1611   1.384       .  S
C1607      F1612   1.382       .  S
C1607      F1613   1.382       .  S
C1610      F1614   1.381   1_556  S
C1610      F1615   1.380       .  S
C1610      F1616   1.384       .  S
C1617      C1618   1.401   1_545  A
C1617      C1622   1.404       .  A
C1617      H1624   1.084       .  S
C1618      C1619   1.413       .  A
C1619      C1626   1.517       .  S
C1619      C1620   1.408       .  A
C1620      C1621   1.406   1_565  A
C1620      H1625   1.081       .  S
C1621      C1622   1.426       .  A
C1622      C1623   1.528       .  S
C1623      F1627   1.385       .  S
C1623      F1628   1.383       .  S
C1626      F1630   1.382       .  S
C1633      C1638   1.415       .  A
C1633      H1640   1.083       .  S
C1634      C1635   1.429       .  A
C1635      C1642   1.518       .  S
C1635      C1636   1.409       .  A
C1636      C1637   1.406       .  A
C1636      H1641   1.081       .  S
C1638      C1639   1.521       .  S
C1639      F1643   1.385       .  S
C1639      F1644   1.383       .  S
C1642      F1647   1.379       .  S
C1642      F1648   1.368   1_565  S
C1649      C1650   1.391       .  A
C1649      C1654   1.400       .  A
C1649      H1656   1.086       .  S
C1650      C1651   1.413       .  A
C1651      C1658   1.520       .  S
C1651      C1652   1.413       .  A
C1652      C1653   1.419       .  A
C1652      H1657   1.072       .  S
C1653      C1654   1.440       .  A
C1654      C1655   1.525       .  S
C1655      F1659   1.367       .  S
C1655      F1660   1.385       .  S
C1655      F1661   1.384       .  S
C1658      F1662   1.383       .  S
C1658      F1663   1.382       .  S
C1658      F1664   1.385       .  S
C1665      C1666   1.397       .  A
C1665      C1670   1.402       .  A
C1665      H1672   1.085       .  S
C1666      C1667   1.418       .  A
C1667      C1674   1.516       .  S
C1667      C1668   1.413       .  A
C1668      C1669   1.404       .  A
C1668      H1673   1.083       .  S
C1669      C1670   1.421       .  A
C1670      C1671   1.515       .  S
C1671      F1675   1.384       .  S
C1671      F1676   1.376       .  S
C1671      F1677   1.382       .  S
C1674      F1678   1.382       .  S
C1674      F1679   1.383       .  S
C1674      F1680   1.385       .  S
C1681      C1682   1.554       .  S
C1681      C1687   1.533       .  S
C1681      C1685   1.531       .  S
C1681      C2493   1.556       .  S
C1682      H1689   1.079       .  S
C1682      C2523   1.382       .  D
C1683      C1684   1.554       .  S
C1683      C2522   1.377       .  D
C1683      C2474   1.525       .  S
C1684      C1688   1.540       .  S
C1684      C1686   1.547       .  S
C1684      H1690   1.100       .  S
C1685      H1691   1.083       .  S
C1685      C2526   1.365       .  D
C1686      C2525   1.365       .  D
C1686      C2461   1.489       .  S
C1687      H2532   1.085       .  S
C1687      C2528   1.358   1_545  D
C1688      C2527   1.358       .  D
C1688      C2509   1.485       .  S
H1692      C2527   1.087       .  S
C1693      C1694   1.413   1_554  A
C1693      C2410   1.475       .  S
C1694      C2442   1.473       .  S
C1695      C1696   1.394       .  A
C1695      H1700   1.086       .  S
C1696      C1697   1.406   1_556  A
C1696      C2426   1.471       .  S
C1697      C1698   1.398       .  A
C1697      C2394   1.476       .  S
C1698      H1699   1.085       .  S
C1701      C1702   1.525       .  S
C1701      C1707   1.549       .  S
C1701      C1705   1.535       .  S
C1701      C2378   1.537       .  S
C1702      H1709   1.087       .  S
C1702      C2543   1.359       .  D
C1703      C1704   1.553   1_565  S
C1703      C2542   1.362       .  D
C1703      C2346   1.495   1_565  S
C1704      C1708   1.539       .  S
C1704      C1706   1.559   1_545  S
C1704      H1710   1.107       .  S
C1705      H1711   1.081       .  S
C1705      C2546   1.367       .  D
C1706      C2545   1.369       .  D
C1706      C3170   1.510       .  S
C1707      H2552   1.086       .  S
C1707      C2548   1.369       .  D
C1708      C2547   1.366   1_545  D
C1708      C2362   1.492       .  S
H1712      C2547   1.086       .  S
C1713      C1719   1.533       .  S
C1713      C1717   1.532       .  S
C1714      H1721   1.083       .  S
C1714      C1715   1.363       .  D
C1715      C2314   1.493       .  S
C1716      C1720   1.543       .  S
C1716      C1718   1.560       .  S
C1716      H1722   1.104       .  S
C1717      H1723   1.080       .  S
C1717      C1718   1.368       .  D
C1718      C2298   1.509       .  S
C1719      H1724   1.086       .  S
C1719      C1720   1.371       .  D
C1725      C1726   1.420   1_554  A
C1725      C2570   1.406       .  A
C1725      C2221   1.490       .  S
C1726      C2567   1.410       .  A
C1726      C2250   1.498       .  S
C1727      C2566   1.407       .  A
C1727      C1728   1.404   1_565  A
C1727      H1732   1.084       .  S
C1728      C1729   1.414   1_556  A
C1728      C2234   1.494       .  S
C1729      C1730   1.408       .  A
C1729      C2205   1.489       .  S
C1730      C2565   1.408   1_545  A
C1730      H1731   1.084       .  S
O1733     Zr1745   2.432       .  S
O1733      C1735   1.286       .  A
O1734     Zr1771   2.397       .  S
O1734      C1735   1.281       .  A
C1735      C2445   1.460       .  S
O1736     Zr1748   2.437       .  S
O1736      C1738   1.286       .  A
O1737     Zr1772   2.432       .  S
O1737      C1738   1.289       .  A
C1738      C2381   1.490       .  S
O1739     Zr1748   2.439       .  S
O1739      C1741   1.287       .  A
O1740     Zr1771   2.443       .  S
O1740      C1741   1.289       .  A
C1741      C2253   1.490       .  S
O1742     Zr1745   2.417       .  S
O1742      C1744   1.282       .  A
O1743     Zr1772   2.480       .  S
O1743      C1744   1.298       .  A
C1744      C2317   1.498       .  S
Zr1745     O1746   2.432       .  S
Zr1745     O1747   2.435       .  S
Zr1745     O1751   2.363       .  S
Zr1745     O1752   2.377       .  S
Zr1745     O1775   2.374       .  S
Zr1745     O1777   2.366       .  S
O1746      H1789   0.990       .  S
O1747      H1788   0.990       .  S
O1747      H1792   0.990       .  S
Zr1748     O1749   2.437       .  S
Zr1748     O1750   2.436       .  S
Zr1748     O1752   2.373       .  S
Zr1748     O1751   2.368       .  S
Zr1748     O1776   2.364       .  S
Zr1748     O1778   2.369       .  S
O1749      H1790   0.990       .  S
O1749      H1793   0.990       .  S
O1750      H1783   0.990       .  S
O1751     Zr1771   2.375       .  S
O1752     Zr1772   2.392       .  S
O1752      H1779   0.966       .  S
O1753     Zr1765   2.460       .  S
O1753      C1755   1.292       .  A
O1754     Zr1772   2.432       .  S
O1754      C1755   1.288       .  A
C1755      C2365   1.482       .  S
O1756     Zr1768   2.439       .  S
O1756      C1758   1.287       .  A
O1757     Zr1771   2.400       .  S
O1757      C1758   1.281       .  A
C1758      C2429   1.460       .  S
O1759     Zr1768   2.427       .  S
O1759      C1761   1.283       .  A
O1760     Zr1772   2.460       .  S
O1760      C1761   1.295       .  A
C1761      C2301   1.500       .  S
O1762     Zr1765   2.458       .  S
O1762      C1764   1.291       .  A
O1763     Zr1771   2.436       .  S
O1763      C1764   1.288       .  A
C1764      C2237   1.487       .  S
Zr1765     O1766   2.434       .  S
Zr1765     O1767   2.433       .  S
Zr1765     O1773   2.370       .  S
Zr1765     O1774   2.376       .  S
Zr1765     O1777   2.375       .  S
Zr1765     O1775   2.374       .  S
O1766      H1786   0.990       .  S
O1766      H1791   0.990       .  S
O1767      H1787   0.990       .  S
Zr1768     O1769   2.433       .  S
Zr1768     O1770   2.436       .  S
Zr1768     O1774   2.366       .  S
Zr1768     O1773   2.369       .  S
Zr1768     O1778   2.373       .  S
Zr1768     O1776   2.358       .  S
O1769      H1785   0.990       .  S
O1770      H1784   0.990       .  S
O1770      H1794   0.990       .  S
Zr1771     O1774   2.380       .  S
Zr1771     O1776   2.374       .  S
Zr1771     O1777   2.382       .  S
Zr1772     O1773   2.393       .  S
Zr1772     O1775   2.385       .  S
Zr1772     O1778   2.390       .  S
O1773      H1781   0.964       .  S
O1776      H1780   0.964       .  S
O1777      H1782   0.966       .  S
O1795     Zr1807   2.456       .  S
O1795      C1797   1.291       .  A
O1796     Zr1833   2.431       .  S
O1796      C1797   1.287       .  A
C1797      C2506   1.481       .  S
O1798     Zr1810   2.426       .  S
O1798      C1800   1.284       .  A
O1799     Zr1834   2.406       .  S
O1799      C1800   1.281       .  A
C1800      C2397   1.457       .  S
O1801     Zr1810   2.422       .  S
O1801      C1803   1.281       .  A
O1802     Zr1833   2.460       .  S
O1802      C1803   1.296       .  A
C1803      C2170   1.507       .  S
O1804     Zr1807   2.461       .  S
O1804      C1806   1.291       .  A
O1805     Zr1834   2.429       .  S
O1805      C1806   1.287       .  A
C1806      C2218   1.481       .  S
Zr1807     O1808   2.434       .  S
Zr1807     O1809   2.436       .  S
Zr1807     O1813   2.377       .  S
Zr1807     O1814   2.372       .  S
Zr1807     O1837   2.378       .  S
Zr1807     O1839   2.375       .  S
O1808      H1851   0.990       .  S
O1809      H1850   0.990       .  S
O1809      H1854   0.990       .  S
Zr1810     O1811   2.437       .  S
Zr1810     O1812   2.433       .  S
Zr1810     O1814   2.366       .  S
Zr1810     O1813   2.377       .  S
Zr1810     O1838   2.368       .  S
Zr1810     O1840   2.363       .  S
O1811      H1852   0.990       .  S
O1811      H1855   0.990       .  S
O1812      H1845   0.990       .  S
O1813     Zr1833   2.387       .  S
O1814     Zr1834   2.388       .  S
O1814      H1841   0.966       .  S
O1815     Zr1827   2.450       .  S
O1815      C1817   1.289       .  A
O1816     Zr1834   2.405       .  S
O1816      C1817   1.282       .  A
C1817      C2413   1.469       .  S
O1818     Zr1830   2.447       .  S
O1818      C1820   1.290       .  A
O1819     Zr1833   2.423       .  S
O1819      C1820   1.285       .  A
C1820      C2490   1.485       .  S
O1821     Zr1830   2.448       .  S
O1821      C1823   1.289       .  A
O1822     Zr1834   2.442       .  S
O1822      C1823   1.289       .  A
C1823      C2202   1.486       .  S
O1824     Zr1827   2.424       .  S
O1824      C1826   1.285       .  A
O1825     Zr1833   2.463       .  S
O1825      C1826   1.294       .  A
C1826      C2189   1.486       .  S
Zr1827     O1828   2.434       .  S
Zr1827     O1829   2.435       .  S
Zr1827     O1835   2.370       .  S
Zr1827     O1836   2.373       .  S
Zr1827     O1839   2.374       .  S
Zr1827     O1837   2.367       .  S
O1828      H1848   0.989       .  S
O1828      H1853   0.990       .  S
O1829      H1849   0.990       .  S
Zr1830     O1831   2.434       .  S
Zr1830     O1832   2.435       .  S
Zr1830     O1836   2.366       .  S
Zr1830     O1835   2.370       .  S
Zr1830     O1840   2.369       .  S
Zr1830     O1838   2.372       .  S
O1831      H1847   0.990       .  S
O1832      H1846   0.990       .  S
O1832      H1856   0.990       .  S
Zr1833     O1836   2.382       .  S
Zr1833     O1838   2.386       .  S
Zr1833     O1839   2.396       .  S
Zr1834     O1835   2.381       .  S
Zr1834     O1837   2.387       .  S
Zr1834     O1840   2.376       .  S
O1835      H1843   0.965       .  S
O1838      H1842   0.966       .  S
O1839      H1844   0.966       .  S
O1857     Zr1869   2.437       .  S
O1857      C2699   1.286       .  A
O1858      C2699   1.296       .  A
C1859      C2349   1.519       .  S
C1859      O2697   1.288       .  A
C1859      O2698   1.296       .  A
O1860     Zr1872   2.443   1_655  S
O1860      C1862   1.289       .  A
O1861     Zr1896   2.423   1_545  S
O1861      C1862   1.285       .  A
O1863     Zr1872   2.455   1_655  S
O1863      C1865   1.290       .  A
O1864     Zr2735   2.423   1_455  S
O1864      C1865   1.287   1_455  A
C1865      C2269   1.485       .  S
O1866     Zr2709   2.445       .  S
O1866      C1868   1.289       .  A
O1867      C1868   1.278       .  A
C1868      C2109   1.462       .  S
Zr1869     O2706   2.445       .  S
Zr1869     O2710   2.436       .  S
Zr1869     O1871   2.434       .  S
Zr1869     O2715   2.379       .  S
Zr1869     O2716   2.363       .  S
Zr1869     O1899   2.364       .  S
Zr1869     O1901   2.374       .  S
O1870     Zr2709   2.434       .  S
O1870      H1913   0.990       .  S
O1871      H1912   0.988       .  S
O1871      H1916   0.989       .  S
Zr1872     O1874   2.432   1_455  S
Zr1872     O1900   2.367   1_455  S
Zr1872     O1902   2.374   1_455  S
O1873      H1914   0.990       .  S
O1873      H1917   0.990       .  S
O1874      H1907   0.990       .  S
O1875     Zr2709   2.376       .  S
O1876     Zr2709   2.369       .  S
O1876      H1903   0.966       .  S
O1877     Zr1889   2.435       .  S
O1877      C1879   1.287       .  A
O1878     Zr2736   2.446       .  S
O1878      C1879   1.290       .  A
C1879      C2157   1.482       .  S
O1880     Zr1892   2.429       .  S
O1880      C1882   1.285       .  A
O1881     Zr1895   2.463       .  S
O1881      C1882   1.295       .  A
C1882      C2333   1.499       .  S
O1883     Zr2732   2.453       .  S
O1883      C2725   1.289       .  A
O1884     Zr1896   2.399       .  S
O1884      C2725   1.280   1_565  A
C1885      C2122   1.463       .  S
C1885      O2723   1.289       .  A
C1885      O2724   1.281       .  A
O1886     Zr1889   2.432       .  S
O1886      C1888   1.287       .  A
O1887     Zr1895   2.419       .  S
O1887      C1888   1.284       .  A
C1888      C2285   1.480   1_655  S
Zr1889     O1890   2.437       .  S
Zr1889     O1897   2.367       .  S
Zr1889     O1898   2.368       .  S
O1890      H1910   0.990       .  S
O1890      H1915   0.990       .  S
O1891      H1911   0.990       .  S
Zr1892     O2723   2.446       .  S
Zr1892     O1893   2.434       .  S
Zr1892     O2734   2.430       .  S
Zr1892     O1898   2.376       .  S
Zr1892     O1897   2.368       .  S
Zr1892     O2742   2.362       .  S
Zr1892     O2740   2.366       .  S
O1893      H1909   0.990       .  S
O1894     Zr2732   2.433       .  S
O1894      H1908   0.990       .  S
O1894      H1918   0.990       .  S
Zr1895     O2704   2.418       .  S
Zr1895     O1898   2.387       .  S
Zr1895     O2740   2.387       .  S
Zr1896     O2718   2.442       .  S
Zr1896     O2737   2.380       .  S
Zr1896     O1902   2.379   1_565  S
O1897     Zr2736   2.386       .  S
O1897      H1905   0.966       .  S
O1900     Zr2732   2.373       .  S
O1900     Zr2735   2.393       .  S
O1900      H1904   0.965       .  S
O1901      H1906   0.965       .  S
O1902     Zr2732   2.359       .  S
O1919     Zr1931   2.428       .  S
O1919      C1921   1.286       .  A
O1920     Zr2797   2.430   1_545  S
O1920      C1921   1.287       .  A
C1921      C2026   1.479       .  S
O1922     Zr1934   2.437       .  S
O1922      C2764   1.287       .  A
O1923      C2764   1.281       .  A
C1924      C2914   1.465       .  S
C1924      O2762   1.290       .  A
C1924      O2763   1.280       .  A
O1925     Zr1934   2.446       .  S
O1925      C2767   1.290       .  A
O1926      C2767   1.289       .  A
C1927      C3317   1.505       .  S
C1927      O2765   1.291       .  A
C1927      O2766   1.288       .  A
O1928     Zr1931   2.436       .  S
O1929     Zr2798   2.445   1_545  S
C1930      C2042   1.483       .  S
Zr1931     O1933   2.433       .  S
Zr1931     O1961   2.372       .  S
Zr1931     O1963   2.362       .  S
O1932      H1975   0.990       .  S
O1933      H1974   0.990       .  S
O1933      H1978   0.990       .  S
Zr1934     O2775   2.435       .  S
Zr1934     O1936   2.435       .  S
Zr1934     O2778   2.377       .  S
Zr1934     O2777   2.367       .  S
Zr1934     O1962   2.368       .  S
Zr1934     O1964   2.372       .  S
O1935     Zr2774   2.437   1_545  S
O1935      H1976   0.990       .  S
O1935      H1979   0.990       .  S
O1936      H1969   0.990       .  S
O1937     Zr2774   2.368   1_545  S
O1938     Zr2774   2.371   1_545  S
O1938      H1965   0.965       .  S
O1939     Zr1951   2.433       .  S
O1939      C1941   1.286       .  A
O1940     Zr2798   2.422       .  S
O1940      C2781   1.286       .  A
C1941      C2090   1.465       .  S
C1941      O2780   1.284       .  A
O1942     Zr1954   2.442       .  S
O1942      C1944   1.287       .  A
O1943     Zr1957   2.423       .  S
O1943      C1944   1.287       .  A
C1944      C2010   1.483       .  S
O1945     Zr1954   2.444       .  S
O1945      C1947   1.288       .  A
O1946     Zr1958   2.441       .  S
O1946      C1947   1.288       .  A
C1947      C2058   1.479       .  S
O1948     Zr1951   2.438       .  S
O1948      C1950   1.288       .  A
O1949     Zr1957   2.430       .  S
O1949      C1950   1.287       .  A
C1950      C2458   1.475       .  S
Zr1951     O1952   2.436       .  S
Zr1951     O2793   2.433       .  S
Zr1951     O1959   2.368       .  S
Zr1951     O1960   2.371       .  S
Zr1951     O2803   2.372       .  S
Zr1951     O2801   2.374       .  S
O1952      H1972   0.990       .  S
O1952      H1977   0.990       .  S
O1953     Zr2791   2.433   1_545  S
O1953      H1973   0.990       .  S
Zr1954     O1955   2.431       .  S
Zr1954     O1960   2.375       .  S
Zr1954     O1959   2.364       .  S
O1955      H1971   0.990       .  S
O1956      H1970   0.990       .  S
O1956      H1980   0.990       .  S
Zr1957     O2760   2.434   1_655  S
Zr1957     O1960   2.387       .  S
Zr1957     O2803   2.388       .  S
Zr1958     O2769   2.447       .  S
Zr1958     O2780   2.414       .  S
Zr1958     O1959   2.384       .  S
Zr1958     O2801   2.381       .  S
O1959      H1967   0.965       .  S
O1961     Zr2791   2.375   1_545  S
O1961     Zr2798   2.378   1_545  S
O1962      H1966   0.966       .  S
O1963     Zr2791   2.365   1_545  S
O1963     Zr2797   2.382   1_545  S
O1963      H1968   0.966       .  S
C1981      C1982   1.416       .  A
C1981      C1986   1.405       .  A
C1981      C2154   1.493       .  S
C1982      C1983   1.405       .  A
C1982      C2061   1.488       .  S
C1983      C1984   1.408       .  A
C1983      H1988   1.085       .  S
C1984      C1985   1.421       .  A
C1984      C2045   1.497       .  S
C1985      C1986   1.410       .  A
C1985      C2138   1.495       .  S
C1986      H1987   1.084       .  S
C1989      C1990   1.409       .  A
C1989      C1994   1.397       .  A
C1989      C2125   1.469       .  S
C1990      C1991   1.394       .  A
C1990      C2093   1.469       .  S
C1991      C1992   1.392       .  A
C1991      H1996   1.086       .  S
C1992      C1993   1.405       .  A
C1992      C2077   1.463       .  S
C1993      C1994   1.395       .  A
C1993      C2106   1.474       .  S
C1994      H1995   1.084       .  S
C1997      C2003   1.532       .  S
C1997      C2001   1.525       .  S
C1997      C2029   1.551       .  S
C1998      H2005   1.080       .  S
C1998      C1999   1.366       .  D
C1999      C2186   1.497       .  S
C2000      C2004   1.546       .  S
C2000      C2002   1.549       .  S
C2000      H2006   1.101       .  S
C2001      H2007   1.084       .  S
C2001      C2002   1.359       .  D
C2002      C2173   1.484       .  S
C2003      H2008   1.086       .  S
C2003      C2004   1.373       .  D
C2009      C2014   1.411       .  A
C2009      H2016   1.083       .  S
C2010      C2011   1.417       .  A
C2011      C2018   1.520       .  S
C2011      C2012   1.401       .  A
C2012      C2013   1.407       .  A
C2012      H2017   1.082       .  S
C2014      C2015   1.518       .  S
C2015      F2019   1.385       .  S
C2015      F2021   1.374       .  S
C2018      F2022   1.382       .  S
C2018      F2023   1.381       .  S
C2018      F2024   1.385       .  S
C2025      C2030   1.406       .  A
C2025      H2032   1.083       .  S
C2026      C2027   1.409       .  A
C2027      C2034   1.518       .  S
C2027      C2028   1.408       .  A
C2028      H2033   1.072       .  S
C2029      C2030   1.442       .  A
C2030      C2031   1.531       .  S
C2031      F2035   1.385       .  S
C2031      F2036   1.376       .  S
C2031      F2037   1.376       .  S
C2034      F2038   1.381       .  S
C2034      F2039   1.382       .  S
C2034      F2040   1.385       .  S
C2041      C2046   1.411       .  A
C2041      H2048   1.085       .  S
C2042      C2043   1.422       .  A
C2043      C2050   1.519       .  S
C2043      C2044   1.405       .  A
C2044      C2045   1.405       .  A
C2044      H2049   1.085       .  S
C2046      C2047   1.515       .  S
C2047      F2051   1.384       .  S
C2047      F2052   1.379       .  S
C2047      F2053   1.382       .  S
C2050      F2054   1.384       .  S
C2050      F2055   1.378       .  S
C2050      F2056   1.383       .  S
C2057      C2062   1.416       .  A
C2057      H2064   1.083       .  S
C2058      C2059   1.414       .  A
C2059      C2066   1.511       .  S
C2059      C2060   1.403       .  A
C2060      H2065   1.082       .  S
C2061      C2062   1.419       .  A
C2062      C2063   1.517       .  S
C2063      F2067   1.380       .  S
C2063      F2068   1.384       .  S
C2063      F2069   1.383       .  S
C2066      F2070   1.381       .  S
C2066      F2071   1.382       .  S
C2066      F2072   1.385       .  S
C2073      C2074   1.396       .  A
C2073      C2078   1.396       .  A
C2073      H2080   1.085       .  S
C2074      C2915   1.414       .  A
C2074      C2764   1.459       .  S
C2075      C2082   1.515       .  S
C2075      C2914   1.415   1_545  A
C2075      C2076   1.400       .  A
C2076      C2917   1.399   1_545  A
C2076      H2081   1.083       .  S
C2077      C2916   1.398       .  A
C2077      C2078   1.418       .  A
C2078      C2079   1.520       .  S
C2079      F2083   1.383       .  S
C2079      F2084   1.382       .  S
C2079      F2925   1.383       .  S
C2082      F2926   1.383       .  S
C2082      F2087   1.380       .  S
C2082      F2088   1.385       .  S
F2085      C2919   1.381       .  S
F2086      C2922   1.382       .  S
C2089      C2930   1.400   1_545  A
C2089      C2094   1.400       .  A
C2089      H2096   1.086       .  S
C2090      C2929   1.404       .  A
C2090      C2091   1.420       .  A
C2091      C2098   1.520       .  S
C2091      C2092   1.394       .  A
C2092      C2093   1.399       .  A
C2092      H2097   1.086       .  S
C2093      C2934   1.415       .  A
C2094      C2095   1.518       .  S
C2094      C2933   1.416   1_545  A
C2095      F2099   1.383       .  S
C2095      F2100   1.382       .  S
C2095      F2101   1.380       .  S
C2098      F2102   1.383       .  S
C2098      F2103   1.378       .  S
C2098      F2104   1.383       .  S
C2105      C2106   1.400       .  A
C2105      C2110   1.403       .  A
C2105      H2112   1.083       .  S
C2106      C2947   1.417       .  A
C2107      C2114   1.519       .  S
C2107      C2946   1.419       .  A
C2107      C2108   1.398       .  A
C2108      C2109   1.399       .  A
C2108      H2113   1.085       .  S
C2109      C2950   1.416   1_545  A
C2110      C2111   1.516       .  S
C2110      C2949   1.419       .  A
C2111      F2115   1.385       .  S
C2111      F2956   1.383       .  S
C2111      F2117   1.378       .  S
C2114      F2118   1.383       .  S
C2114      F2959   1.382       .  S
C2114      F2120   1.385       .  S
F2116      C2951   1.383       .  S
F2119      C2954   1.381       .  S
C2121      C2122   1.402       .  A
C2121      C2126   1.403       .  A
C2121      H2128   1.085       .  S
C2122      C2963   1.411       .  A
C2123      C2130   1.516       .  S
C2123      C2962   1.411       .  A
C2123      C2124   1.398       .  A
C2124      C2965   1.403   1_545  A
C2124      H2129   1.083       .  S
C2125      C2964   1.401       .  A
C2125      C2126   1.417       .  A
C2126      C2127   1.518       .  S
C2127      F2131   1.383       .  S
C2127      F2132   1.381       .  S
C2127      F2973   1.384       .  S
C2130      F2974   1.381       .  S
C2130      F2135   1.380       .  S
C2130      F2136   1.385       .  S
F2133      C2967   1.384       .  S
F2134      C2970   1.382       .  S
C2137      C2138   1.410       .  A
C2137      C2142   1.415       .  A
C2137      H2144   1.082       .  S
C2139      C2146   1.522       .  S
C2139      C2140   1.400       .  A
C2140      H2145   1.085       .  S
C2141      C2142   1.419       .  A
C2142      C2143   1.518       .  S
C2143      F2147   1.385       .  S
C2143      F2148   1.382       .  S
C2143      F2149   1.383       .  S
C2146      F2150   1.384       .  S
C2146      F2151   1.379       .  S
C2146      F2152   1.383       .  S
C2153      C2154   1.405       .  A
C2153      C2158   1.406       .  A
C2153      H2160   1.085       .  S
C2155      C2162   1.519       .  S
C2155      C2156   1.410       .  A
C2156      C2157   1.405       .  A
C2156      H2161   1.085       .  S
C2158      C2159   1.523       .  S
C2159      F2163   1.383       .  S
C2159      F2164   1.380       .  S
C2159      F2165   1.384       .  S
C2162      F2166   1.384       .  S
C2162      F2167   1.381       .  S
C2162      F2168   1.382       .  S
C2169      C2170   1.405       .  A
C2169      C2174   1.401       .  A
C2169      H2176   1.083       .  S
C2170      C2171   1.436       .  A
C2171      C2178   1.522       .  S
C2171      C2172   1.412       .  A
C2172      C2173   1.397       .  A
C2172      H2177   1.083       .  S
C2173      C2174   1.420       .  A
C2174      C2175   1.518       .  S
C2175      F2179   1.383       .  S
C2175      F2180   1.377       .  S
C2175      F2181   1.384       .  S
C2178      F2182   1.383       .  S
C2178      F2183   1.381       .  S
C2178      F2184   1.386       .  S
C2185      C2186   1.401       .  A
C2185      C2190   1.404       .  A
C2185      H2192   1.085       .  S
C2186      C2187   1.423       .  A
C2187      C2194   1.514       .  S
C2187      C2188   1.415       .  A
C2188      C2189   1.403       .  A
C2188      H2193   1.083       .  S
C2189      C2190   1.421       .  A
C2190      C2191   1.519       .  S
C2191      F2195   1.384       .  S
C2191      F2196   1.383       .  S
C2191      F2197   1.382       .  S
C2194      F2198   1.380       .  S
C2194      F2199   1.381       .  S
C2194      F2200   1.385       .  S
C2201      C2202   1.402       .  A
C2201      C2206   1.408       .  A
C2201      H2208   1.083       .  S
C2202      C2203   1.417       .  A
C2203      C2210   1.511       .  S
C2203      C2204   1.408       .  A
C2204      C2205   1.402       .  A
C2204      H2209   1.082       .  S
C2205      C2206   1.419       .  A
C2206      C2207   1.519       .  S
C2207      F2211   1.385       .  S
C2207      F2212   1.381       .  S
C2207      F2213   1.382       .  S
C2210      F2214   1.379       .  S
C2210      F2215   1.382       .  S
C2210      F2216   1.385       .  S
C2217      C2218   1.402       .  A
C2217      C2222   1.408       .  A
C2217      H2224   1.085       .  S
C2218      C2219   1.413       .  A
C2219      C2226   1.516       .  S
C2219      C2220   1.408       .  A
C2220      C2221   1.407       .  A
C2220      H2225   1.084       .  S
C2221      C2222   1.420       .  A
C2222      C2223   1.516       .  S
C2223      F2227   1.382       .  S
C2223      F2228   1.378       .  S
C2223      F2229   1.384       .  S
C2226      F2230   1.383       .  S
C2226      F2231   1.382       .  S
C2226      F2232   1.385       .  S
C2233      C2234   1.404       .  A
C2233      C2238   1.412       .  A
C2233      H2240   1.081       .  S
C2234      C2235   1.419       .  A
C2235      C2242   1.520       .  S
C2235      C2236   1.408       .  A
C2236      C2237   1.403       .  A
C2236      H2241   1.084       .  S
C2237      C2238   1.419       .  A
C2238      C2239   1.518       .  S
C2239      F2243   1.384       .  S
C2239      F2244   1.383       .  S
C2239      F2245   1.382       .  S
C2242      F2246   1.382       .  S
C2242      F2247   1.384       .  S
C2242      F2248   1.384       .  S
C2249      C2250   1.407       .  A
C2249      C2254   1.413       .  A
C2249      H2256   1.081       .  S
C2250      C2251   1.423       .  A
C2251      C2258   1.521       .  S
C2251      C2252   1.405       .  A
C2252      C2253   1.402       .  A
C2252      H2257   1.085       .  S
C2253      C2254   1.418       .  A
C2254      C2255   1.513       .  S
C2255      F2259   1.382       .  S
C2255      F2260   1.378       .  S
C2255      F2261   1.382       .  S
C2258      F2262   1.382       .  S
C2258      F2263   1.380       .  S
C2258      F2264   1.384       .  S
C2265      C2266   1.406       .  A
C2265      C2270   1.400       .  A
C2265      H2272   1.083       .  S
C2267      C2274   1.518       .  S
C2267      C2268   1.412       .  A
C2268      H2273   1.083       .  S
C2269      C2270   1.415       .  A
C2270      C2271   1.516       .  S
C2271      F2275   1.385       .  S
C2271      F2276   1.383       .  S
C2271      F2277   1.380       .  S
C2274      F2278   1.380       .  S
C2274      F2279   1.374       .  S
C2274      F2280   1.385       .  S
C2281      C2282   1.415   1_655  A
C2281      C2286   1.409       .  A
C2281      H2288   1.076       .  S
C2282      C2283   1.435       .  A
C2283      C2284   1.399       .  A
C2284      C2285   1.396       .  A
C2284      H2289   1.086       .  S
C2285      C2286   1.412   1_455  A
C2286      C2287   1.517       .  S
C2287      F2291   1.383       .  S
C2287      F2292   1.383       .  S
C2290      F2295   1.366       .  S
C2290      F2296   1.385       .  S
C2297      C2298   1.403       .  A
C2297      C2302   1.411       .  A
C2297      H2304   1.082       .  S
C2298      C2299   1.431       .  A
C2299      C2306   1.520       .  S
C2299      C2300   1.407       .  A
C2300      C2301   1.401       .  A
C2300      H2305   1.084       .  S
C2301      C2302   1.427       .  A
C2302      C2303   1.520       .  S
C2303      F2307   1.385       .  S
C2303      F2308   1.382       .  S
C2303      F2309   1.384       .  S
C2306      F2310   1.381       .  S
C2306      F2311   1.373       .  S
C2306      F2312   1.386       .  S
C2313      C2314   1.398       .  A
C2313      C2318   1.408       .  A
C2313      H2320   1.084       .  S
C2314      C2315   1.417       .  A
C2315      C2322   1.513       .  S
C2315      C2316   1.415       .  A
C2316      C2317   1.406       .  A
C2316      H2321   1.083       .  S
C2317      C2318   1.428       .  A
C2318      C2319   1.520       .  S
C2319      F2323   1.385       .  S
C2319      F2324   1.382       .  S
C2319      F2325   1.383       .  S
C2322      F2326   1.382       .  S
C2322      F2327   1.382       .  S
C2322      F2328   1.383       .  S
C2329      C3170   1.403   1_545  A
C2329      C2334   1.411       .  A
C2329      H2336   1.082       .  S
C2330      C2546   1.495       .  S
C2330      C3169   1.399       .  A
C2330      C2331   1.427       .  A
C2331      C2338   1.523       .  S
C2331      C2332   1.409       .  A
C2332      C2333   1.404       .  A
C2332      H2337   1.082       .  S
C2333      C3174   1.427       .  A
C2334      C2335   1.519       .  S
C2334      C3173   1.427       .  A
C2335      F2339   1.384       .  S
C2335      F3180   1.383       .  S
C2335      F2341   1.384       .  S
C2338      F2342   1.382       .  S
C2338      F3183   1.380       .  S
C2338      F2344   1.384       .  S
F2340      C3175   1.382       .  S
F2343      C3178   1.380       .  S
C2345      C3186   1.395       .  A
C2345      C2350   1.407       .  A
C2345      H2352   1.084       .  S
C2346      C3185   1.392   1_545  A
C2346      C2347   1.418       .  A
C2347      C2354   1.517       .  S
C2347      C2348   1.420       .  A
C2348      C2349   1.413       .  A
C2348      H2353   1.083       .  S
C2349      C3190   1.435   1_545  A
C2350      C2351   1.519       .  S
C2350      C3189   1.430       .  A
C2351      F2355   1.385       .  S
C2351      F3196   1.380       .  S
C2351      F2357   1.383       .  S
C2354      F2358   1.382       .  S
C2354      F3199   1.383       .  S
C2354      F2360   1.384       .  S
F2356      C3191   1.382       .  S
F2359      C3194   1.383       .  S
C2361      C2362   1.402       .  A
C2361      C2366   1.400       .  A
C2361      H2368   1.084       .  S
C2362      C2363   1.421       .  A
C2363      C2370   1.517       .  S
C2363      C2364   1.415       .  A
C2364      C2365   1.405       .  A
C2364      H2369   1.083       .  S
C2365      C2366   1.416       .  A
C2366      C2367   1.516       .  S
C2367      F2371   1.385       .  S
C2367      F2372   1.381       .  S
C2367      F2373   1.381       .  S
C2370      F2374   1.380       .  S
C2370      F2375   1.379       .  S
C2370      F2376   1.383       .  S
C2377      C2378   1.406       .  A
C2377      C2382   1.403       .  A
C2377      H2384   1.081       .  S
C2378      C2379   1.426       .  A
C2379      C2386   1.520       .  S
C2379      C2380   1.408       .  A
C2380      C2381   1.405       .  A
C2380      H2385   1.084       .  S
C2381      C2382   1.422       .  A
C2382      C2383   1.520       .  S
C2383      F2387   1.385       .  S
C2383      F2388   1.381       .  S
C2383      F2389   1.384       .  S
C2386      F2390   1.383       .  S
C2386      F2391   1.381       .  S
C2386      F2392   1.385       .  S
C2393      C2394   1.406       .  A
C2393      C2398   1.404       .  A
C2393      H2400   1.083       .  S
C2394      C2395   1.418       .  A
C2395      C2402   1.522       .  S
C2395      C2396   1.399       .  A
C2396      C2397   1.397       .  A
C2396      H2401   1.084       .  S
C2397      C2398   1.410       .  A
C2398      C2399   1.518       .  S
C2399      F2403   1.384       .  S
C2399      F2404   1.383       .  S
C2399      F2405   1.383       .  S
C2402      F2406   1.381       .  S
C2402      F2407   1.385       .  S
C2402      F2408   1.380       .  S
C2409      C2410   1.403       .  A
C2409      C2414   1.397       .  A
C2409      H2416   1.086       .  S
C2410      C2411   1.415       .  A
C2411      C2418   1.516       .  S
C2411      C2412   1.403       .  A
C2412      C2413   1.403       .  A
C2412      H2417   1.084       .  S
C2413      C2414   1.418       .  A
C2414      C2415   1.518       .  S
C2415      F2419   1.384       .  S
C2415      F2420   1.376       .  S
C2415      F2421   1.383       .  S
C2418      F2422   1.380       .  S
C2418      F2423   1.380       .  S
C2418      F2424   1.384       .  S
C2425      C2426   1.401       .  A
C2425      C2430   1.401       .  A
C2425      H2432   1.081       .  S
C2426      C2427   1.419       .  A
C2427      C2434   1.520       .  S
C2427      C2428   1.399       .  A
C2428      C2429   1.397       .  A
C2428      H2433   1.084       .  S
C2429      C2430   1.414       .  A
C2430      C2431   1.518       .  S
C2431      F2435   1.384       .  S
C2431      F2436   1.383       .  S
C2431      F2437   1.381       .  S
C2434      F2438   1.383       .  S
C2434      F2439   1.381       .  S
C2434      F2440   1.383       .  S
C2441      C2442   1.404       .  A
C2441      C2446   1.395       .  A
C2441      H2448   1.085       .  S
C2442      C2443   1.416       .  A
C2443      C2450   1.518       .  S
C2443      C2444   1.402       .  A
C2444      C2445   1.403       .  A
C2444      H2449   1.085       .  S
C2445      C2446   1.415       .  A
C2446      C2447   1.521       .  S
C2447      F2451   1.384       .  S
C2447      F2452   1.380       .  S
C2447      F2453   1.383       .  S
C2450      F2454   1.381   1_556  S
C2450      F2455   1.381       .  S
C2450      F2456   1.385       .  S
C2457      C2458   1.399       .  A
C2457      C2462   1.403       .  A
C2457      H2464   1.084       .  S
C2458      C2459   1.412       .  A
C2459      C2466   1.517       .  S
C2459      C2460   1.409       .  A
C2460      C2461   1.408       .  A
C2460      H2465   1.082       .  S
C2461      C2462   1.425       .  A
C2462      C2463   1.525       .  S
C2463      F2467   1.385       .  S
C2463      F2468   1.381       .  S
C2463      F3309   1.383       .  S
C2466      F2470   1.382       .  S
C2466      F3311   1.383       .  S
C2466      F3312   1.384       .  S
F2469      C3303   1.381       .  S
F2471      C3306   1.383       .  S
F2472      C3306   1.384       .  S
C2473      C3314   1.415   1_545  A
C2473      C2478   1.413       .  A
C2473      H2480   1.081       .  S
C2474      C3313   1.415       .  A
C2474      C2475   1.429       .  A
C2475      C2482   1.517       .  S
C2475      C2476   1.412       .  A
C2476      C2477   1.406       .  A
C2476      H2481   1.082       .  S
C2477      C3318   1.421       .  A
C2477      C2767   1.509       .  S
C2478      C2479   1.520       .  S
C2478      C3317   1.420   1_545  A
C2479      F2483   1.385       .  S
C2479      F2484   1.383       .  S
C2479      F3325   1.382   1_545  S
C2482      F3326   1.385       .  S
C2482      F2487   1.380       .  S
C2482      F2488   1.372       .  S
F2485      C3319   1.383       .  S
F2486      C3322   1.385       .  S
C2489      C2490   1.394       .  A
C2489      C2494   1.402       .  A
C2489      H2496   1.086       .  S
C2490      C2491   1.414       .  A
C2491      C2498   1.522       .  S
C2491      C2492   1.414       .  A
C2492      C2493   1.419       .  A
C2492      H2497   1.074       .  S
C2493      C2494   1.438       .  A
C2494      C2495   1.523       .  S
C2495      F2499   1.369       .  S
C2495      F2500   1.385       .  S
C2495      F2501   1.383       .  S
C2498      F2502   1.384       .  S
C2498      F2503   1.382       .  S
C2498      F2504   1.384       .  S
C2505      C2506   1.398       .  A
C2505      C2510   1.402       .  A
C2505      H2512   1.086       .  S
C2506      C2507   1.418       .  A
C2507      C2514   1.513       .  S
C2507      C2508   1.411       .  A
C2508      C2509   1.402       .  A
C2508      H2513   1.083       .  S
C2509      C2510   1.422       .  A
C2510      C2511   1.516       .  S
C2511      F2515   1.384       .  S
C2511      F2516   1.377       .  S
C2511      F2517   1.384       .  S
C2514      F2518   1.381       .  S
C2514      F2519   1.383       .  S
C2514      F2520   1.385       .  S
C2521      C2522   1.558       .  S
C2521      C2527   1.532       .  S
C2521      C2525   1.533       .  S
C2521      C3333   1.555       .  S
C2522      H2529   1.079       .  S
C2523      C2524   1.554   1_545  S
C2523      C3314   1.530   1_545  S
C2524      C2528   1.541       .  S
C2524      C2526   1.547   1_565  S
C2524      H2530   1.098       .  S
C2525      H2531   1.080       .  S
C2526      C3301   1.490       .  S
C2528      C3349   1.486       .  S
C2533      C2534   1.412   1_554  A
C2533      C3250   1.476       .  S
C2534      C3282   1.468       .  S
C2535      C2536   1.396       .  A
C2535      H2540   1.085       .  S
C2536      C2537   1.407   1_556  A
C2536      C3266   1.467       .  S
C2537      C2538   1.389       .  A
C2537      C3234   1.475       .  S
C2538      H2539   1.085       .  S
C2541      C2542   1.529       .  S
C2541      C2547   1.547       .  S
C2541      C2545   1.538       .  S
C2541      C3218   1.546       .  S
C2542      H2549   1.087       .  S
C2543      C2544   1.549       .  S
C2543      C3186   1.486       .  S
C2544      C2548   1.540       .  S
C2544      C2546   1.553       .  S
C2544      H2550   1.105       .  S
C2545      H2551   1.077       .  S
C2548      C3202   1.499       .  S
C2553      C2559   1.529       .  S
C2553      C2557   1.532       .  S
C2554      H2561   1.084       .  S
C2554      C2555   1.362       .  D
C2555      C3154   1.489       .  S
C2556      C2560   1.546       .  S
C2556      C2558   1.561       .  S
C2556      H2562   1.103       .  S
C2557      H2563   1.081       .  S
C2557      C2558   1.367       .  D
C2558      C3138   1.511       .  S
C2559      H2564   1.086       .  S
C2559      C2560   1.367       .  D
C2565      C2566   1.419   1_554  A
C2565      C3061   1.495       .  S
C2566      C3090   1.492       .  S
C2567      C2568   1.407       .  A
C2567      H2572   1.084       .  S
C2568      C2569   1.414   1_556  A
C2568      C3074   1.489       .  S
C2569      C2570   1.404       .  A
C2569      C3045   1.491       .  S
C2570      H2571   1.084       .  S
O2573     Zr2585   2.436       .  S
O2573      C2575   1.287       .  A
O2574     Zr2611   2.393       .  S
O2574      C2575   1.280       .  A
C2575      C3285   1.459       .  S
O2576     Zr2588   2.430       .  S
O2576      C2578   1.284       .  A
O2577     Zr2612   2.441       .  S
O2577      C2578   1.291       .  A
C2578      C3221   1.495       .  S
O2579     Zr2588   2.443       .  S
O2579      C2581   1.289       .  A
O2580     Zr2611   2.435       .  S
O2580      C2581   1.287       .  A
C2581      C3093   1.485       .  S
O2582     Zr2585   2.422       .  S
O2582      C2584   1.282       .  A
O2583     Zr2612   2.470       .  S
O2583      C2584   1.296       .  A
C2584      C3157   1.501       .  S
Zr2585     O2586   2.434       .  S
Zr2585     O2587   2.437       .  S
Zr2585     O2591   2.364       .  S
Zr2585     O2592   2.376       .  S
Zr2585     O2615   2.376       .  S
Zr2585     O2617   2.365       .  S
O2586      H2629   0.990       .  S
O2587      H2628   0.990       .  S
O2587      H2632   0.990       .  S
Zr2588     O2589   2.435       .  S
Zr2588     O2590   2.436       .  S
Zr2588     O2592   2.372       .  S
Zr2588     O2591   2.365       .  S
Zr2588     O2616   2.361       .  S
Zr2588     O2618   2.372       .  S
O2589      H2630   0.990       .  S
O2589      H2633   0.990       .  S
O2590      H2623   0.990       .  S
O2591     Zr2611   2.373       .  S
O2592     Zr2612   2.394       .  S
O2592      H2619   0.966       .  S
O2593     Zr2605   2.462       .  S
O2593      C2595   1.292       .  A
O2594     Zr2612   2.438       .  S
O2594      C2595   1.289       .  A
C2595      C3205   1.487       .  S
O2596     Zr2608   2.443       .  S
O2596      C2598   1.288       .  A
O2597     Zr2611   2.393       .  S
O2597      C2598   1.279       .  A
C2598      C3269   1.460       .  S
O2599     Zr2608   2.434       .  S
O2599      C2601   1.284       .  A
O2600     Zr2612   2.459       .  S
O2600      C2601   1.295       .  A
C2601      C3141   1.508       .  S
O2602     Zr2605   2.460       .  S
O2602      C2604   1.291       .  A
O2603     Zr2611   2.426       .  S
O2603      C2604   1.286       .  A
C2604      C3077   1.482       .  S
Zr2605     O2606   2.431       .  S
Zr2605     O2607   2.436       .  S
Zr2605     O2613   2.369       .  S
Zr2605     O2614   2.366       .  S
Zr2605     O2617   2.375       .  S
Zr2605     O2615   2.381       .  S
O2606      H2626   0.990       .  S
O2606      H2631   0.989       .  S
O2607      H2627   0.990       .  S
Zr2608     O2609   2.437       .  S
Zr2608     O2610   2.435       .  S
Zr2608     O2614   2.365       .  S
Zr2608     O2613   2.367       .  S
Zr2608     O2618   2.371       .  S
Zr2608     O2616   2.363       .  S
O2609      H2625   0.989       .  S
O2610      H2624   0.990       .  S
O2610      H2634   0.990       .  S
Zr2611     O2614   2.378       .  S
Zr2611     O2616   2.375       .  S
Zr2611     O2617   2.382       .  S
Zr2612     O2613   2.390       .  S
Zr2612     O2615   2.393       .  S
Zr2612     O2618   2.387       .  S
O2613      H2621   0.965       .  S
O2616      H2620   0.965       .  S
O2617      H2622   0.966       .  S
O2635     Zr2647   2.457       .  S
O2635      C2637   1.291       .  A
O2636     Zr2673   2.414       .  S
O2636      C2637   1.284       .  A
C2637      C3346   1.475       .  S
O2638     Zr2650   2.439       .  S
O2638      C2640   1.287       .  A
O2639     Zr2674   2.405       .  S
O2639      C2640   1.281       .  A
C2640      C3237   1.461       .  S
O2641     Zr2650   2.422       .  S
O2641      C2643   1.281       .  A
O2642     Zr2673   2.460       .  S
O2642      C2643   1.296       .  A
C2643      C3010   1.509       .  S
O2644     Zr2647   2.449       .  S
O2644      C2646   1.289       .  A
O2645     Zr2674   2.433       .  S
O2645      C2646   1.288       .  A
C2646      C3058   1.478       .  S
Zr2647     O2648   2.436       .  S
Zr2647     O2649   2.432       .  S
Zr2647     O2653   2.369       .  S
Zr2647     O2654   2.377       .  S
Zr2647     O2677   2.375       .  S
Zr2647     O2679   2.373       .  S
O2648      H2691   0.990       .  S
O2649      H2690   0.990       .  S
O2649      H2694   0.990       .  S
Zr2650     O2651   2.435       .  S
Zr2650     O2652   2.436       .  S
Zr2650     O2654   2.361       .  S
Zr2650     O2653   2.375       .  S
Zr2650     O2678   2.371       .  S
Zr2650     O2680   2.363       .  S
O2651      H2692   0.990       .  S
O2651      H2695   0.990       .  S
O2652      H2685   0.990       .  S
O2653     Zr2673   2.385       .  S
O2654     Zr2674   2.388       .  S
O2654      H2681   0.966       .  S
O2655     Zr2667   2.444       .  S
O2655      C2657   1.288       .  A
O2656     Zr2674   2.405       .  S
O2656      C2657   1.282       .  A
C2657      C3253   1.467       .  S
O2658     Zr2670   2.437       .  S
O2658      C2660   1.288       .  A
O2659     Zr2673   2.415       .  S
O2659      C2660   1.284       .  A
C2660      C3330   1.468       .  S
O2661     Zr2670   2.441       .  S
O2661      C2663   1.288       .  A
O2662     Zr2674   2.448       .  S
O2662      C2663   1.290       .  A
C2663      C3042   1.486       .  S
O2664     Zr2667   2.426       .  S
O2664      C2666   1.285       .  A
O2665     Zr2673   2.477       .  S
O2665      C2666   1.296       .  A
C2666      C3029   1.493       .  S
Zr2667     O2668   2.433       .  S
Zr2667     O2669   2.436       .  S
Zr2667     O2675   2.373       .  S
Zr2667     O2676   2.374       .  S
Zr2667     O2679   2.375       .  S
Zr2667     O2677   2.363       .  S
O2668      H2688   0.989       .  S
O2668      H2693   0.990       .  S
O2669      H2689   0.990       .  S
Zr2670     O2671   2.433       .  S
Zr2670     O2672   2.436       .  S
Zr2670     O2676   2.368       .  S
Zr2670     O2675   2.375       .  S
Zr2670     O2680   2.367       .  S
Zr2670     O2678   2.367       .  S
O2671      H2687   0.990       .  S
O2672      H2686   0.990       .  S
O2672      H2696   0.990       .  S
Zr2673     O2676   2.380       .  S
Zr2673     O2678   2.388       .  S
Zr2673     O2679   2.392       .  S
Zr2674     O2675   2.382       .  S
Zr2674     O2677   2.384       .  S
Zr2674     O2680   2.375       .  S
O2675      H2683   0.965       .  S
O2678      H2682   0.966       .  S
O2679      H2684   0.966       .  S
O2697     Zr2709   2.452       .  S
C2699      C3189   1.501       .  S
O2700     Zr2712   2.457       .  S
O2700      C2702   1.292       .  A
O2701     Zr2736   2.436       .  S
O2701      C2702   1.288       .  A
O2703     Zr2712   2.462       .  S
O2703      C2705   1.292       .  A
O2704      C2705   1.285       .  A
C2705      C3109   1.477       .  S
O2706      C2708   1.289       .  A
O2707      C2708   1.280       .  A
C2708      C2949   1.471       .  S
Zr2709     O2711   2.434   1_545  S
Zr2709     O2739   2.370   1_545  S
Zr2709     O2741   2.367   1_545  S
O2710      H2753   0.990       .  S
O2711      H2752   0.989       .  S
O2711      H2756   0.989       .  S
Zr2712     O2714   2.435       .  S
Zr2712     O2740   2.368       .  S
Zr2712     O2742   2.374       .  S
O2713      H2754   0.990       .  S
O2713      H2757   0.990       .  S
O2714      H2747   0.990       .  S
O2716      H2743   0.966       .  S
O2717     Zr2729   2.436       .  S
O2717      C2719   1.287       .  A
O2718      C2719   1.289       .  A
C2719      C2997   1.479       .  S
O2720     Zr2732   2.430       .  S
O2720      C2722   1.284       .  A
O2721     Zr2735   2.467       .  S
O2721      C2722   1.296       .  A
C2722      C3173   1.505       .  S
O2724     Zr2736   2.399       .  S
C2725      C2962   1.466       .  S
O2726     Zr2729   2.428       .  S
O2726      C2728   1.287       .  A
O2727     Zr2735   2.420   1_565  S
O2727      C2728   1.285       .  A
C2728      C3125   1.476   1_655  S
Zr2729     O2730   2.435       .  S
Zr2729     O2737   2.368       .  S
Zr2729     O2738   2.369       .  S
O2730      H2750   0.990       .  S
O2730      H2755   0.990       .  S
O2731      H2751   0.989       .  S
Zr2732     O2733   2.433   1_545  S
Zr2732     O2738   2.377   1_545  S
Zr2732     O2737   2.364   1_545  S
O2733      H2749   0.990       .  S
O2734      H2748   0.990       .  S
O2734      H2758   0.989       .  S
Zr2735     O2738   2.393   1_545  S
Zr2736     O2742   2.382       .  S
O2737      H2745   0.966       .  S
O2740      H2744   0.966       .  S
O2741      H2746   0.966       .  S
O2759     Zr2771   2.438   1_455  S
O2759      C2761   1.288       .  A
O2760      C2761   1.287       .  A
C2761      C2866   1.483       .  S
O2762     Zr2774   2.451       .  S
O2765     Zr2774   2.451       .  S
O2768     Zr2771   2.440       .  S
C2770      C2882   1.484       .  S
Zr2771     O2773   2.436       .  S
Zr2771     O2801   2.373       .  S
Zr2771     O2803   2.363       .  S
O2772      H2815   0.990       .  S
O2773      H2814   0.990       .  S
O2773      H2818   0.990       .  S
Zr2774     O2776   2.432       .  S
Zr2774     O2802   2.376       .  S
Zr2774     O2804   2.371       .  S
O2775      H2816   0.990       .  S
O2775      H2819   0.990       .  S
O2776      H2809   0.990       .  S
O2778      H2805   0.963       .  S
O2779     Zr2791   2.425       .  S
O2779      C2781   1.285       .  A
C2781      C2930   1.465       .  S
O2782     Zr2794   2.432       .  S
O2782      C2784   1.286       .  A
O2783     Zr2797   2.424       .  S
O2783      C2784   1.287       .  A
C2784      C2850   1.480       .  S
O2785     Zr2794   2.441   1_455  S
O2785      C2787   1.287       .  A
O2786     Zr2798   2.436       .  S
O2786      C2787   1.288   1_655  A
C2787      C2898   1.476   1_455  S
O2788     Zr2791   2.427       .  S
O2788      C2790   1.285       .  A
O2789     Zr2797   2.431       .  S
O2789      C2790   1.287       .  A
C2790      C3298   1.471       .  S
Zr2791     O2792   2.435       .  S
Zr2791     O2799   2.368       .  S
Zr2791     O2800   2.368       .  S
O2792      H2812   0.990       .  S
O2792      H2817   0.990       .  S
O2793      H2813   0.990       .  S
Zr2794     O2795   2.432       .  S
Zr2794     O2800   2.377       .  S
Zr2794     O2799   2.362       .  S
O2795      H2811   0.990       .  S
O2796      H2810   0.990       .  S
O2796      H2820   0.990       .  S
Zr2797     O2800   2.383       .  S
Zr2798     O2799   2.380       .  S
O2799      H2807   0.965       .  S
O2802      H2806   0.966       .  S
O2803      H2808   0.965       .  S
C2821      C2822   1.416       .  A
C2821      C2826   1.404       .  A
C2821      C2994   1.490       .  S
C2822      C2823   1.407       .  A
C2822      C2901   1.492       .  S
C2823      C2824   1.411       .  A
C2823      H2828   1.085       .  S
C2824      C2825   1.422       .  A
C2824      C2885   1.498       .  S
C2825      C2826   1.407       .  A
C2825      C2978   1.496       .  S
C2826      H2827   1.085       .  S
C2829      C2830   1.412       .  A
C2829      C2834   1.397       .  A
C2829      C2965   1.473       .  S
C2830      C2831   1.396       .  A
C2830      C2933   1.474       .  S
C2831      C2832   1.393       .  A
C2831      H2836   1.085       .  S
C2832      C2833   1.410       .  A
C2832      C2917   1.474       .  S
C2833      C2834   1.397       .  A
C2833      C2946   1.476   1_565  S
C2834      H2835   1.084   1_565  S
C2837      C2843   1.533       .  S
C2837      C2841   1.528       .  S
C2837      C2869   1.552       .  S
C2838      H2845   1.080       .  S
C2838      C2839   1.367       .  D
C2839      C3026   1.504       .  S
C2840      C2844   1.547       .  S
C2840      C2842   1.549       .  S
C2840      H2846   1.101       .  S
C2841      H2847   1.085       .  S
C2841      C2842   1.362       .  D
C2842      C3013   1.489       .  S
C2843      H2848   1.085       .  S
C2843      C2844   1.373       .  D
C2849      C2854   1.412       .  A
C2849      H2856   1.083       .  S
C2850      C2851   1.415       .  A
C2851      C2858   1.521       .  S
C2851      C2852   1.402       .  A
C2852      C2853   1.411       .  A
C2852      H2857   1.082       .  S
C2854      C2855   1.518       .  S
C2855      F2859   1.385       .  S
C2855      F2861   1.376       .  S
C2858      F2862   1.382       .  S
C2858      F2863   1.382       .  S
C2858      F2864   1.385       .  S
C2865      C2870   1.408       .  A
C2865      H2872   1.083       .  S
C2866      C2867   1.410   1_455  A
C2867      C2874   1.517       .  S
C2867      C2868   1.408       .  A
C2868      H2873   1.071       .  S
C2869      C2870   1.440       .  A
C2870      C2871   1.533       .  S
C2871      F2875   1.386       .  S
C2871      F2876   1.376       .  S
C2871      F2877   1.377       .  S
C2874      F2878   1.381       .  S
C2874      F2879   1.383       .  S
C2874      F2880   1.385       .  S
C2881      C2886   1.411       .  A
C2881      H2888   1.085       .  S
C2882      C2883   1.421       .  A
C2883      C2890   1.518       .  S
C2883      C2884   1.405       .  A
C2884      C2885   1.403       .  A
C2884      H2889   1.085       .  S
C2886      C2887   1.514       .  S
C2887      F2891   1.384       .  S
C2887      F2892   1.378       .  S
C2887      F2893   1.382       .  S
C2890      F2894   1.383       .  S
C2890      F2895   1.376       .  S
C2890      F2896   1.383       .  S
C2897      C2902   1.416       .  A
C2897      H2904   1.083       .  S
C2898      C2899   1.412       .  A
C2899      C2906   1.510       .  S
C2899      C2900   1.402       .  A
C2900      H2905   1.081       .  S
C2901      C2902   1.420       .  A
C2902      C2903   1.516       .  S
C2903      F2907   1.379       .  S
C2903      F2908   1.384       .  S
C2903      F2909   1.383       .  S
C2906      F2910   1.382       .  S
C2906      F2911   1.381       .  S
C2906      F2912   1.384       .  S
C2913      C2914   1.400       .  A
C2913      C2918   1.401       .  A
C2913      H2920   1.084       .  S
C2915      C2922   1.512       .  S
C2915      C2916   1.400       .  A
C2916      H2921   1.083       .  S
C2917      C2918   1.418       .  A
C2918      C2919   1.521       .  S
C2919      F2923   1.384       .  S
C2919      F2924   1.384       .  S
C2922      F2927   1.380       .  S
C2922      F2928   1.384       .  S
C2929      C2934   1.403       .  A
C2929      H2936   1.085       .  S
C2930      C2931   1.420       .  A
C2931      C2938   1.522       .  S
C2931      C2932   1.400       .  A
C2932      C2933   1.404       .  A
C2932      H2937   1.085       .  S
C2934      C2935   1.518       .  S
C2935      F2939   1.382       .  S
C2935      F2940   1.382       .  S
C2935      F2941   1.380       .  S
C2938      F2942   1.383       .  S
C2938      F2943   1.378       .  S
C2938      F2944   1.383       .  S
C2945      C2946   1.400   1_565  A
C2945      C2950   1.398       .  A
C2945      H2952   1.081       .  S
C2947      C2954   1.520       .  S
C2947      C2948   1.399       .  A
C2948      C2949   1.399       .  A
C2948      H2953   1.084       .  S
C2950      C2951   1.518       .  S
C2951      F2955   1.385       .  S
C2951      F2957   1.378       .  S
C2954      F2958   1.384       .  S
C2954      F2960   1.384       .  S
C2961      C2962   1.402   1_565  A
C2961      C2966   1.404       .  A
C2961      H2968   1.085       .  S
C2963      C2970   1.516       .  S
C2963      C2964   1.395       .  A
C2964      H2969   1.083       .  S
C2965      C2966   1.417       .  A
C2966      C2967   1.520       .  S
C2967      F2971   1.382       .  S
C2967      F2972   1.381       .  S
C2970      F2975   1.378       .  S
C2970      F2976   1.385       .  S
C2977      C2978   1.408       .  A
C2977      C2982   1.413       .  A
C2977      H2984   1.082       .  S
C2979      C2986   1.523       .  S
C2979      C2980   1.405       .  A
C2980      H2985   1.085       .  S
C2981      C2982   1.417       .  A
C2982      C2983   1.519       .  S
C2983      F2987   1.384       .  S
C2983      F2988   1.382       .  S
C2983      F2989   1.384       .  S
C2986      F2990   1.384       .  S
C2986      F2991   1.379       .  S
C2986      F2992   1.383       .  S
C2993      C2994   1.402       .  A
C2993      C2998   1.403       .  A
C2993      H3000   1.085       .  S
C2995      C3002   1.518       .  S
C2995      C2996   1.410       .  A
C2996      C2997   1.403       .  A
C2996      H3001   1.085       .  S
C2998      C2999   1.520       .  S
C2999      F3003   1.384       .  S
C2999      F3004   1.379       .  S
C2999      F3005   1.383       .  S
C3002      F3006   1.385       .  S
C3002      F3007   1.380       .  S
C3002      F3008   1.382       .  S
C3009      C3010   1.406       .  A
C3009      C3014   1.403       .  A
C3009      H3016   1.083       .  S
C3010      C3011   1.437       .  A
C3011      C3018   1.523       .  S
C3011      C3012   1.413       .  A
C3012      C3013   1.398       .  A
C3012      H3017   1.083       .  S
C3013      C3014   1.419       .  A
C3014      C3015   1.517       .  S
C3015      F3019   1.383       .  S
C3015      F3020   1.379       .  S
C3015      F3021   1.384       .  S
C3018      F3022   1.382       .  S
C3018      F3023   1.382       .  S
C3018      F3024   1.385       .  S
C3025      C3026   1.403       .  A
C3025      C3030   1.408       .  A
C3025      H3032   1.085       .  S
C3026      C3027   1.422       .  A
C3027      C3034   1.512       .  S
C3027      C3028   1.417       .  A
C3028      C3029   1.404       .  A
C3028      H3033   1.083       .  S
C3029      C3030   1.424       .  A
C3030      C3031   1.520       .  S
C3031      F3035   1.385       .  S
C3031      F3036   1.383       .  S
C3031      F3037   1.382       .  S
C3034      F3038   1.381       .  S
C3034      F3039   1.381       .  S
C3034      F3040   1.384       .  S
C3041      C3042   1.404       .  A
C3041      C3046   1.411       .  A
C3041      H3048   1.083       .  S
C3042      C3043   1.417       .  A
C3043      C3050   1.512       .  S
C3043      C3044   1.408       .  A
C3044      C3045   1.401       .  A
C3044      H3049   1.083       .  S
C3045      C3046   1.420       .  A
C3046      C3047   1.520       .  S
C3047      F3051   1.384       .  S
C3047      F3052   1.382       .  S
C3047      F3053   1.383       .  S
C3050      F3054   1.381       .  S
C3050      F3055   1.381       .  S
C3050      F3056   1.384       .  S
C3057      C3058   1.400       .  A
C3057      C3062   1.408       .  A
C3057      H3064   1.084       .  S
C3058      C3059   1.414       .  A
C3059      C3066   1.517       .  S
C3059      C3060   1.410       .  A
C3060      C3061   1.408       .  A
C3060      H3065   1.083       .  S
C3061      C3062   1.419       .  A
C3062      C3063   1.515       .  S
C3063      F3067   1.377       .  S
C3063      F3068   1.382       .  S
C3063      F3069   1.383       .  S
C3066      F3070   1.381       .  S
C3066      F3071   1.381       .  S
C3066      F3072   1.384       .  S
C3073      C3074   1.404       .  A
C3073      C3078   1.410       .  A
C3073      H3080   1.081       .  S
C3074      C3075   1.420       .  A
C3075      C3082   1.519       .  S
C3075      C3076   1.406       .  A
C3076      C3077   1.401       .  A
C3076      H3081   1.085       .  S
C3077      C3078   1.419       .  A
C3078      C3079   1.518       .  S
C3079      F3083   1.385       .  S
C3079      F3084   1.383       .  S
C3079      F3085   1.383       .  S
C3082      F3086   1.382       .  S
C3082      F3087   1.382       .  S
C3082      F3088   1.384       .  S
C3089      C3090   1.405       .  A
C3089      C3094   1.410       .  A
C3089      H3096   1.081       .  S
C3090      C3091   1.422       .  A
C3091      C3098   1.521       .  S
C3091      C3092   1.402       .  A
C3092      C3093   1.402       .  A
C3092      H3097   1.085       .  S
C3093      C3094   1.418       .  A
C3094      C3095   1.514       .  S
C3095      F3099   1.384       .  S
C3095      F3100   1.378       .  S
C3095      F3101   1.382       .  S
C3098      F3102   1.382       .  S
C3098      F3103   1.383       .  S
C3098      F3104   1.385       .  S
C3105      C3106   1.403       .  A
C3105      C3110   1.402       .  A
C3105      H3112   1.082       .  S
C3107      C3114   1.514       .  S
C3107      C3108   1.409       .  A
C3108      H3113   1.083       .  S
C3109      C3110   1.414       .  A
C3110      C3111   1.515       .  S
C3111      F3115   1.386       .  S
C3111      F3116   1.382       .  S
C3111      F3117   1.380       .  S
C3114      F3118   1.382       .  S
C3114      F3119   1.375       .  S
C3114      F3120   1.382       .  S
C3121      C3122   1.415   1_655  A
C3121      C3126   1.407       .  A
C3121      H3128   1.077       .  S
C3122      C3123   1.436       .  A
C3123      C3124   1.398       .  A
C3124      C3125   1.395       .  A
C3124      H3129   1.086       .  S
C3125      C3126   1.410   1_455  A
C3126      C3127   1.515       .  S
C3127      F3131   1.384       .  S
C3127      F3132   1.383       .  S
C3130      F3135   1.366       .  S
C3130      F3136   1.385       .  S
C3137      C3138   1.402       .  A
C3137      C3142   1.414       .  A
C3137      H3144   1.082       .  S
C3138      C3139   1.429       .  A
C3139      C3146   1.518       .  S
C3139      C3140   1.408       .  A
C3140      C3141   1.403       .  A
C3140      H3145   1.083       .  S
C3141      C3142   1.431       .  A
C3142      C3143   1.520       .  S
C3143      F3147   1.385       .  S
C3143      F3148   1.382       .  S
C3143      F3149   1.383       .  S
C3146      F3150   1.381       .  S
C3146      F3151   1.376       .  S
C3146      F3152   1.385       .  S
C3153      C3154   1.395       .  A
C3153      C3158   1.408       .  A
C3153      H3160   1.084       .  S
C3154      C3155   1.418       .  A
C3155      C3162   1.514       .  S
C3155      C3156   1.413       .  A
C3156      C3157   1.406       .  A
C3156      H3161   1.083       .  S
C3157      C3158   1.431       .  A
C3158      C3159   1.521       .  S
C3159      F3163   1.385       .  S
C3159      F3164   1.382       .  S
C3159      F3165   1.384       .  S
C3162      F3166   1.381       .  S
C3162      F3167   1.383       .  S
C3162      F3168   1.385       .  S
C3169      C3174   1.406       .  A
C3169      H3176   1.083       .  S
C3170      C3171   1.433       .  A
C3171      C3178   1.522       .  S
C3171      C3172   1.412       .  A
C3172      C3173   1.401   1_565  A
C3172      H3177   1.080       .  S
C3174      C3175   1.517       .  S
C3175      F3179   1.385       .  S
C3175      F3181   1.382       .  S
C3178      F3182   1.383       .  S
C3178      F3184   1.385       .  S
C3185      C3190   1.410       .  A
C3185      H3192   1.083       .  S
C3186      C3187   1.413       .  A
C3187      C3194   1.514       .  S
C3187      C3188   1.415       .  A
C3188      C3189   1.409       .  A
C3188      H3193   1.083       .  S
C3190      C3191   1.518       .  S
C3191      F3195   1.385       .  S
C3191      F3197   1.382       .  S
C3194      F3198   1.382       .  S
C3194      F3200   1.382       .  S
C3201      C3202   1.403       .  A
C3201      C3206   1.402       .  A
C3201      H3208   1.083       .  S
C3202      C3203   1.423       .  A
C3203      C3210   1.516       .  S
C3203      C3204   1.415       .  A
C3204      C3205   1.404       .  A
C3204      H3209   1.083       .  S
C3205      C3206   1.416       .  A
C3206      C3207   1.515       .  S
C3207      F3211   1.385       .  S
C3207      F3212   1.383       .  S
C3207      F3213   1.377       .  S
C3210      F3214   1.381       .  S
C3210      F3215   1.376       .  S
C3210      F3216   1.384       .  S
C3217      C3218   1.409       .  A
C3217      C3222   1.405       .  A
C3217      H3224   1.081       .  S
C3218      C3219   1.428       .  A
C3219      C3226   1.519       .  S
C3219      C3220   1.409       .  A
C3220      C3221   1.405       .  A
C3220      H3225   1.084       .  S
C3221      C3222   1.424       .  A
C3222      C3223   1.522       .  S
C3223      F3227   1.385       .  S
C3223      F3228   1.382       .  S
C3223      F3229   1.384       .  S
C3226      F3230   1.383       .  S
C3226      F3231   1.380       .  S
C3226      F3232   1.385       .  S
C3233      C3234   1.402       .  A
C3233      C3238   1.401       .  A
C3233      H3240   1.081       .  S
C3234      C3235   1.419       .  A
C3235      C3242   1.523       .  S
C3235      C3236   1.402       .  A
C3236      C3237   1.399       .  A
C3236      H3241   1.084       .  S
C3237      C3238   1.412       .  A
C3238      C3239   1.518       .  S
C3239      F3243   1.385       .  S
C3239      F3244   1.383       .  S
C3239      F3245   1.382       .  S
C3242      F3246   1.382       .  S
C3242      F3247   1.384       .  S
C3242      F3248   1.381       .  S
C3249      C3250   1.401       .  A
C3249      C3254   1.394       .  A
C3249      H3256   1.086       .  S
C3250      C3251   1.416       .  A
C3251      C3258   1.518       .  S
C3251      C3252   1.405       .  A
C3252      C3253   1.405       .  A
C3252      H3257   1.083       .  S
C3253      C3254   1.417       .  A
C3254      C3255   1.518       .  S
C3255      F3259   1.383       .  S
C3255      F3260   1.375       .  S
C3255      F3261   1.383       .  S
C3258      F3262   1.381       .  S
C3258      F3263   1.381       .  S
C3258      F3264   1.384       .  S
C3265      C3266   1.398       .  A
C3265      C3270   1.398       .  A
C3265      H3272   1.082       .  S
C3266      C3267   1.416       .  A
C3267      C3274   1.521       .  S
C3267      C3268   1.399       .  A
C3268      C3269   1.400       .  A
C3268      H3273   1.083       .  S
C3269      C3270   1.416       .  A
C3270      C3271   1.519       .  S
C3271      F3275   1.385       .  S
C3271      F3276   1.382       .  S
C3271      F3277   1.382       .  S
C3274      F3278   1.382       .  S
C3274      F3279   1.383       .  S
C3274      F3280   1.384       .  S
C3281      C3282   1.404       .  A
C3281      C3286   1.396       .  A
C3281      H3288   1.085       .  S
C3282      C3283   1.415       .  A
C3283      C3290   1.519       .  S
C3283      C3284   1.399       .  A
C3284      C3285   1.402       .  A
C3284      H3289   1.086       .  S
C3285      C3286   1.415       .  A
C3286      C3287   1.521       .  S
C3287      F3291   1.384       .  S
C3287      F3292   1.380       .  S
C3287      F3293   1.383       .  S
C3290      F3294   1.383   1_556  S
C3290      F3295   1.380       .  S
C3290      F3296   1.384       .  S
C3297      C3298   1.399   1_545  A
C3297      C3302   1.402       .  A
C3297      H3304   1.084       .  S
C3298      C3299   1.410       .  A
C3299      C3306   1.517       .  S
C3299      C3300   1.408       .  A
C3300      C3301   1.408   1_565  A
C3300      H3305   1.081       .  S
C3301      C3302   1.423       .  A
C3302      C3303   1.523       .  S
C3303      F3307   1.385       .  S
C3303      F3308   1.383       .  S
C3306      F3310   1.382       .  S
C3313      C3318   1.415       .  A
C3313      H3320   1.082       .  S
C3314      C3315   1.434       .  A
C3315      C3322   1.519       .  S
C3315      C3316   1.414       .  A
C3316      C3317   1.404       .  A
C3316      H3321   1.082       .  S
C3318      C3319   1.520       .  S
C3319      F3323   1.384       .  S
C3319      F3324   1.383       .  S
C3322      F3327   1.381       .  S
C3322      F3328   1.373       .  S
C3329      C3330   1.389       .  A
C3329      C3334   1.404       .  A
C3329      H3336   1.084       .  S
C3330      C3331   1.405       .  A
C3331      C3338   1.522       .  S
C3331      C3332   1.408       .  A
C3332      C3333   1.422       .  A
C3332      H3337   1.070       .  S
C3333      C3334   1.445       .  A
C3334      C3335   1.532       .  S
C3335      F3339   1.379       .  S
C3335      F3340   1.386       .  S
C3335      F3341   1.368       .  S
C3338      F3342   1.384       .  S
C3338      F3343   1.382       .  S
C3338      F3344   1.385       .  S
C3345      C3346   1.396       .  A
C3345      C3350   1.401       .  A
C3345      H3352   1.085       .  S
C3346      C3347   1.416       .  A
C3347      C3354   1.516       .  S
C3347      C3348   1.412       .  A
C3348      C3349   1.404       .  A
C3348      H3353   1.083       .  S
C3349      C3350   1.422       .  A
C3350      C3351   1.514       .  S
C3351      F3355   1.384       .  S
C3351      F3356   1.374       .  S
C3351      F3357   1.382       .  S
C3354      F3358   1.381       .  S
C3354      F3359   1.384       .  S
C3354      F3360   1.384       .  S
