geometry optimzed in LAMMPS
_audit_creation_date              2020-12-01 
_audit_creation_method            'lammps2cif' 
_symmetry_space_group_name_H-M    'P1' 
_symmetry_Int_Tables_number       1 
_symmetry_cell_setting            triclinic 
loop_ 
_symmetry_equiv_pos_as_xyz 
  x,y,z 
_cell_length_a                    37.09159129 
_cell_length_b                    37.34997838603867 
_cell_length_c                    72.79337772056576 
_cell_angle_alpha                 90.24129360917156 
_cell_angle_beta                  89.99710604016335 
_cell_angle_gamma                 89.07108336492664 
loop_ 
_atom_site_label 
_atom_site_type_symbol 
_atom_site_fract_x 
_atom_site_fract_y 
_atom_site_fract_z 
_atom_site_charge 
C1          C  0.24718493  0.45260651  0.23964994     0.87300
C2          C  0.27897233  0.45797263  0.25243859    -0.53000
C3          C  0.27963799  0.99057283  0.26155370     0.10200
C4          C  0.24485650  0.01405199  0.25843006     0.21200
C5          C  0.21331633  0.45715769  0.25194404    -0.53700
C6          C  0.21233457  0.98926876  0.26229176     0.10300
C7          C  0.24553289  0.48671568  0.22770029    -0.53200
C8          C  0.24279813  0.02021492  0.23743318     0.10900
H9          H  0.30083672  0.43841295  0.25377192     0.15400
H10         H  0.24390493  0.03924966  0.26637833     0.01100
H11         H  0.19201576  0.43788345  0.25230264     0.15700
H12         H  0.24227283  0.98778522  0.21286969     0.15500
N13         N  0.49946652  0.22254871  0.97408617    -0.35800
N14         N  0.44446749  0.21615503  0.00148447    -0.56400
N15         N  0.49966208  0.21369698  0.02916466    -0.35800
N16         N  0.05304402  0.23248427  0.00111061    -0.56400
C17         C  0.46965275  0.23330142  0.96493943     0.27800
C18         C  0.02608764  0.24116430  0.96428439     0.27800
C19         C  0.47012967  0.22167406  0.03938127     0.27800
C20         C  0.02530612  0.23565216  0.03888495     0.27800
C21         C  0.42431024  0.21047819  0.98639639     0.36400
C22         C  0.42392892  0.20790026  0.01606307     0.36400
C23         C  0.07426362  0.22740329  0.98626929     0.36400
C24         C  0.07399536  0.22695342  0.01594584     0.36400
C25         C  0.47907987  0.25417667  0.95003568    -0.21100
C26         C  0.01327993  0.25919826  0.94895989    -0.21100
C27         C  0.48046840  0.23540744  0.05626270    -0.21100
C28         C  0.01267145  0.24799076  0.05573562    -0.21100
C29         C  0.39073636  0.19788647  0.99134366    -0.22200
C30         C  0.39039839  0.19653315  0.01028229    -0.22200
C31         C  0.10908235  0.21840182  0.99166279    -0.22200
C32         C  0.10899932  0.21854252  0.01060572    -0.22200
C33         C  0.43463261  0.22157167  0.96871568    -0.17500
C34         C  0.06262452  0.23474286  0.96823128    -0.17500
C35         C  0.06198244  0.23223905  0.03408619    -0.21500
C36         C  0.43419578  0.21469410  0.03433816    -0.17500
H37         H  0.46124953  0.26611295  0.93992024     0.15400
H38         H  0.02887947  0.27301946  0.93870076     0.15400
H39         H  0.46321315  0.24382828  0.06752130     0.15400
H40         H  0.02825113  0.25834809  0.06708558     0.15400
H41         H  0.36837649  0.19199366  0.98233114     0.13700
H42         H  0.36784290  0.18911993  0.01881764     0.13700
H43         H  0.13223632  0.21341325  0.98291676     0.13700
H44         H  0.13201253  0.21346729  0.01941676     0.13700
H45         H  0.50059085  0.20291091  0.98420626     0.27000
H46         H  0.50024090  0.19938528  0.01686761     0.26900
C47         C  0.24648201  0.45829462  0.76324096     0.87300
C48         C  0.21525269  0.46343005  0.74930105    -0.53000
C49         C  0.21423238  0.99526424  0.73800482     0.10200
C50         C  0.24733767  0.01820194  0.74271580     0.21200
C51         C  0.27985516  0.46057418  0.75103584    -0.53700
C52         C  0.28074839  0.99232292  0.74022503     0.10300
C53         C  0.24698424  0.49313562  0.77456419    -0.53200
C54         C  0.24369331  0.02462687  0.76376784     0.10900
H55         H  0.19573407  0.44352250  0.74567584     0.15400
H56         H  0.24803492  0.04251090  0.73417070     0.01100
H57         H  0.30034895  0.43949463  0.75038608     0.15700
H58         H  0.24332371  0.99162010  0.78811490     0.15500
C59         C  0.99657956  0.29821333  0.73977610     0.87300
C60         C  0.46650029  0.29144574  0.75259500    -0.53000
C61         C  0.46626089  0.26034063  0.76242115     0.10200
C62         C  0.00105212  0.23857247  0.75878170     0.21200
C63         C  0.02952208  0.29566039  0.75271817    -0.53700
C64         C  0.03199869  0.26499244  0.76289238     0.10300
C65         C  0.00117238  0.26383550  0.72806642    -0.53200
C66         C  0.00316764  0.23248508  0.73776188     0.10900
H67         H  0.44514285  0.31158031  0.75363776     0.15400
H68         H  0.00326267  0.21347064  0.76679692     0.01100
H69         H  0.05080548  0.31517310  0.75312677     0.15700
H70         H  0.00345694  0.26425614  0.71321209     0.15500
N71         N  0.25209429  0.98600366  0.02802269    -0.35800
N72         N  0.25921691  0.43490352  0.99990562    -0.56400
N73         N  0.25316479  0.98992154  0.97286201    -0.35800
N74         N  0.25684944  0.04267768  0.00073991    -0.56400
C75         C  0.24965594  0.46008839  0.03722138     0.27800
C76         C  0.24402631  0.01550830  0.03805228     0.27800
C77         C  0.25350680  0.46281564  0.96189107     0.27800
C78         C  0.24593867  0.01998372  0.96313989     0.27800
C79         C  0.26550067  0.41361084  0.01456755     0.36400
C80         C  0.26629375  0.41499329  0.98482970     0.36400
C81         C  0.26484379  0.06132040  0.01600044     0.36400
C82         C  0.26524905  0.06355529  0.98633085     0.36400
C83         C  0.23236301  0.47159016  0.05309743    -0.21100
C84         C  0.22709331  0.00566444  0.05423785    -0.21100
C85         C  0.24006881  0.47422923  0.94504763    -0.21100
C86         C  0.22871716  0.01129057  0.94688265    -0.21100
C87         C  0.27675503  0.37985933  0.00878324    -0.22200
C88         C  0.27690747  0.38063206  0.98985339    -0.22200
C89         C  0.27876021  0.09433482  0.01130886    -0.22200
C90         C  0.27882488  0.09581091  0.99239188    -0.22200
C91         C  0.25783107  0.42403396  0.03285842    -0.17500
C92         C  0.25496555  0.05057779  0.03382369    -0.17500
C93         C  0.25700546  0.05464221  0.96802832    -0.17500
C94         C  0.25995977  0.42675188  0.96672433    -0.17500
H95         H  0.22108184  0.45517628  0.06381235     0.15400
H96         H  0.21802214  0.02304221  0.06530086     0.15400
H97         H  0.23086211  0.45790109  0.93372599     0.15400
H98         H  0.21997335  0.02934039  0.93611438     0.15400
H99         H  0.28318951  0.35690786  0.01726851     0.13700
H100        H  0.28352923  0.35837416  0.98082902     0.13700
H101        H  0.28662651  0.11561242  0.02054299     0.13700
H102        H  0.28688832  0.11828491  0.98409247     0.13700
H103        H  0.26886726  0.98517312  0.01655999     0.27000
H104        H  0.26995154  0.98777164  0.98428309     0.26900
O105        O  0.34827555  0.23696981  0.89080797    -0.74500
O106        O  0.30232124  0.23836702  0.91153616    -0.53400
C107        C  0.33582386  0.23686152  0.90739998     0.79200
O108        O  0.25154229  0.34115241  0.82740308    -0.59100
O109        O  0.24953721  0.29738537  0.80537556    -0.52100
C110        C  0.25062674  0.33043215  0.81059907     0.71200
O111        O  0.25770458  0.34210812  0.88872923    -0.73700
O112        O  0.25200191  0.29772030  0.90998992    -0.54200
C113        C  0.25593743  0.33048224  0.90526414     0.77200
O114        O  0.35174185  0.24106513  0.82937453    -0.58800
O115        O  0.30927639  0.23781775  0.80692878    -0.51900
C116        C  0.34262568  0.23950121  0.81242587     0.73800
Zr117      Zr  0.32417355  0.23732276  0.85922164     2.54700
O118        O  0.37479079  0.27790305  0.86081624    -0.79400
O119        O  0.36196598  0.18350469  0.85786944    -0.92800
Zr120      Zr  0.25198196  0.31640536  0.85820086     2.64700
O121        O  0.29954239  0.36047879  0.85650077    -0.97700
O122        O  0.20380491  0.36138492  0.85952950    -0.79800
O123        O  0.28876190  0.27820148  0.87647867    -0.83200
O124        O  0.28866749  0.27675268  0.84068265    -2.17900
O125        O  0.24087469  0.14150617  0.82765320    -0.66500
O126        O  0.24441136  0.18466545  0.80559105    -0.51100
C127        C  0.24103434  0.15189028  0.81074479     0.72200
O128        O  0.14866009  0.24614862  0.89007316    -0.59500
O129        O  0.19434684  0.24331879  0.91089801    -0.51400
C130        C  0.16091171  0.24482997  0.90664248     0.74000
O131        O  0.14708844  0.25071130  0.82882267    -0.70900
O132        O  0.19008255  0.24584491  0.80641143    -0.49500
C133        C  0.15695295  0.24989130  0.81193951     0.75400
O134        O  0.25003633  0.14188646  0.89035649    -0.66200
O135        O  0.24868481  0.18772308  0.91123655    -0.53400
C136        C  0.25014878  0.15434427  0.90697319     0.73800
Zr137      Zr  0.24602482  0.16624697  0.85881954     2.77500
O138        O  0.19776129  0.12339030  0.86220136    -0.96900
O139        O  0.29194370  0.11912177  0.85660298    -0.77800
Zr140      Zr  0.17377483  0.24609268  0.85893029     2.70100
O141        O  0.12593530  0.20245668  0.85716776    -0.79000
O142        O  0.13178777  0.29690163  0.85980769    -0.98100
Zr143      Zr  0.24877660  0.24196303  0.89339206     2.21500
Zr144      Zr  0.24919749  0.24095580  0.82243795     2.11100
O145        O  0.20949293  0.20582112  0.84090006    -2.46800
O146        O  0.20869197  0.20530895  0.87657802    -0.78800
O147        O  0.28559892  0.20140551  0.84082320    -0.71000
O148        O  0.21214380  0.28263285  0.87643255    -2.31900
O149        O  0.28573006  0.20124124  0.87658744    -2.28200
O150        O  0.21264556  0.28088816  0.84047398    -0.72700
H151        H  0.30408074  0.29087933  0.83296051     0.79300
H152        H  0.19828534  0.29821659  0.88449256     0.80300
H153        H  0.19355181  0.19217568  0.83322476     0.82600
H154        H  0.30003748  0.18621306  0.88462486     0.80200
H155        H  0.18580596  0.35309723  0.85047959     0.43200
H156        H  0.10930677  0.28726632  0.86501991     0.42200
H157        H  0.10342513  0.21705916  0.85676409     0.41900
H158        H  0.17652975  0.13516500  0.85644641     0.39800
H159        H  0.28072903  0.09797269  0.86226900     0.42900
H160        H  0.35751814  0.17338583  0.84549916     0.37700
H161        H  0.39581821  0.26233746  0.86381753     0.43800
H162        H  0.28946626  0.38208724  0.86268419     0.40200
H163        H  0.20432793  0.10340660  0.85380737     0.45200
H164        H  0.35041765  0.16644139  0.86630145     0.43900
H165        H  0.31846920  0.35142045  0.86496122     0.44000
H166        H  0.14108742  0.31299398  0.86948311     0.44400
O167        O  0.34780683  0.23232503  0.17302099    -0.74500
O168        O  0.30474171  0.23334144  0.19526659    -0.53400
C169        C  0.33818014  0.23297250  0.18998183     0.79200
O170        O  0.25179839  0.33570130  0.11109796    -0.59100
O171        O  0.24950980  0.29015144  0.09031653    -0.52100
C172        C  0.25118469  0.32346789  0.09440065     0.71200
O173        O  0.25276479  0.33681470  0.17385418    -0.73700
O174        O  0.25025088  0.29366714  0.19592711    -0.54200
C175        C  0.25249779  0.32659259  0.19074779     0.77200
O176        O  0.34534992  0.22598939  0.11148734    -0.58800
O177        O  0.30026520  0.23358566  0.09048711    -0.51900
C178        C  0.33345874  0.22867881  0.09488697     0.73800
Zr179      Zr  0.32057516  0.22807603  0.14279220     2.54700
O180        O  0.37851515  0.25755575  0.14092866    -0.79400
O181        O  0.34882922  0.16872477  0.14258999    -0.92800
Zr182      Zr  0.25093853  0.31141758  0.14287209     2.64700
O183        O  0.30096340  0.35239201  0.14408092    -0.97700
O184        O  0.20761919  0.36110862  0.14262662    -0.79800
O185        O  0.28626247  0.27028956  0.16055819    -0.83200
O186        O  0.28740203  0.27113848  0.12551715    -2.17900
O187        O  0.24287166  0.13727371  0.11153377    -0.66500
O188        O  0.24578166  0.18282715  0.09082802    -0.51100
C189        C  0.24485192  0.14962211  0.09498829     0.72200
O190        O  0.14412605  0.24512948  0.17329088    -0.59500
O191        O  0.18717575  0.24295522  0.19562292    -0.51400
C192        C  0.15390411  0.24556643  0.19018648     0.74000
O193        O  0.14395533  0.23799290  0.11280682    -0.70900
O194        O  0.18954642  0.23982735  0.09176884    -0.49500
C195        C  0.15617943  0.23865484  0.09633282     0.75400
O196        O  0.23685371  0.13661634  0.17413825    -0.66200
O197        O  0.24001504  0.18037355  0.19608622    -0.53400
C198        C  0.23707207  0.14733457  0.19099962     0.73800
Zr199      Zr  0.23984463  0.16124257  0.14316702     2.77500
O200        O  0.18645927  0.12413517  0.14247444    -0.96900
O201        O  0.28053218  0.10955966  0.14433684    -0.77800
Zr202      Zr  0.17069562  0.24277291  0.14307801     2.70100
O203        O  0.11947994  0.20302064  0.14529916    -0.79000
O204        O  0.13297264  0.29615729  0.13938121    -0.98100
Zr205      Zr  0.24572977  0.23683538  0.17926810     2.21500
Zr206      Zr  0.24571949  0.23682691  0.10839725     2.11100
O207        O  0.20478738  0.20130979  0.12530802    -2.46800
O208        O  0.20516517  0.20220192  0.16119205    -0.78800
O209        O  0.28058398  0.19416726  0.12504136    -0.71000
O210        O  0.21040630  0.27776571  0.16107981    -2.31900
O211        O  0.28063039  0.19483359  0.16136952    -2.28200
O212        O  0.20957610  0.27829938  0.12518313    -0.72700
H213        H  0.30325050  0.28424471  0.11761423     0.79300
H214        H  0.19646983  0.29382673  0.16882400     0.80300
H215        H  0.18955240  0.18763263  0.11725492     0.82600
H216        H  0.29416920  0.17907084  0.16931762     0.80200
H217        H  0.18807573  0.35360993  0.15096017     0.43200
H218        H  0.14108733  0.30702731  0.12773626     0.42200
H219        H  0.09841638  0.21909642  0.14751774     0.41900
H220        H  0.16777198  0.13869370  0.13612552     0.39800
H221        H  0.26488496  0.08882675  0.14192504     0.42900
H222        H  0.35120401  0.16192813  0.15565925     0.37700
H223        H  0.37573967  0.27924703  0.14868943     0.43800
H224        H  0.31837300  0.34303374  0.13488331     0.40200
H225        H  0.19243629  0.10452084  0.13375703     0.45200
H226        H  0.37383456  0.17279246  0.13844060     0.43900
H227        H  0.29118370  0.37494073  0.13882548     0.44000
H228        H  0.10872903  0.28689653  0.13653524     0.44400
O229        O  0.09833668  0.01488991  0.67101219    -0.74500
O230        O  0.05797460  0.01260600  0.69428690    -0.53400
C231        C  0.09081685  0.01412359  0.68811956     0.79200
O232        O  0.49790168  0.11503617  0.61365378    -0.59100
O233        O  0.49519438  0.07010978  0.59246431    -0.52100
C234        C  0.49694606  0.10320806  0.59688123     0.71200
O235        O  0.50587332  0.11222768  0.67654660    -0.73700
O236        O  0.50439562  0.06842597  0.69830491    -0.54200
C237        C  0.50764235  0.10137649  0.69335173     0.77200
O238        O  0.09137410  0.00293808  0.61038581    -0.58800
O239        O  0.04476590  0.01065438  0.59034872    -0.51900
C240        C  0.07817166  0.00447960  0.59402283     0.73800
Zr241      Zr  0.06878912  0.01050267  0.64182645     2.54700
O242        O  0.11690775  0.05332980  0.63803744    -0.79400
O243        O  0.11065071  0.45725989  0.64183605    -0.92800
Zr244      Zr  0.49610278  0.08983290  0.64525053     2.64700
O245        O  0.04253911  0.13970642  0.64543217    -0.97700
O246        O  0.44273345  0.12848854  0.64724614    -0.79800
O247        O  0.03499898  0.05048616  0.66088518    -0.83200
O248        O  0.03365319  0.05303814  0.62563120    -2.17900
O249        O  0.49969337  0.41638857  0.61229978    -0.66500
O250        O  0.49544600  0.46176907  0.59161322    -0.51100
C251        C  0.49935155  0.42864670  0.59574794     0.72200
O252        O  0.39591601  0.01042957  0.67603753    -0.59500
O253        O  0.44007444  0.01213552  0.69794342    -0.51400
C254        C  0.40698934  0.51070116  0.69263134     0.74000
O255        O  0.39262055  0.01675512  0.61499828    -0.70900
O256        O  0.43724106  0.01587940  0.59338292    -0.49500
C257        C  0.40200995  0.51957353  0.59841219     0.75400
O258        O  0.49050938  0.41447708  0.67430154    -0.66200
O259        O  0.49596931  0.45645768  0.69683078    -0.53400
C260        C  0.49241598  0.42375275  0.69131929     0.73800
Zr261      Zr  0.49108756  0.44016802  0.64356280     2.77500
O262        O  0.43884386  0.40203195  0.64041489    -0.96900
O263        O  0.03609665  0.39019681  0.64456869    -0.77800
Zr264      Zr  0.42035398  0.01770957  0.64551490     2.70100
O265        O  0.36482304  0.48764299  0.64439389    -0.79000
O266        O  0.38076593  0.07018003  0.64782787    -0.98100
Zr267      Zr  0.49819413  0.01279527  0.68076606     2.21500
Zr268      Zr  0.49383686  0.01606501  0.60975523     2.11100
O269        O  0.45301657  0.48003401  0.62695972    -2.46800
O270        O  0.45671795  0.48001504  0.66233630    -0.78800
O271        O  0.03150228  0.47499391  0.62497108    -0.71000
O272        O  0.45929088  0.05310090  0.66390745    -2.31900
O273        O  0.03436381  0.47453343  0.66094367    -2.28200
O274        O  0.45628722  0.05540415  0.62729064    -0.72700
H275        H  0.04908332  0.06622746  0.61747932     0.79300
H276        H  0.44525991  0.06782141  0.67223288     0.80300
H277        H  0.43705995  0.46648261  0.61917035     0.82600
H278        H  0.04916027  0.45888111  0.66845676     0.80200
H279        H  0.44216679  0.14163597  0.63546584     0.43200
H280        H  0.38109086  0.08087021  0.63540323     0.42200
H281        H  0.37285508  0.46228564  0.64381117     0.41900
H282        H  0.41797382  0.41770608  0.64351625     0.39800
H283        H  0.05526186  0.39809326  0.65305364     0.42900
H284        H  0.09627661  0.43882553  0.63550336     0.37700
H285        H  0.10806915  0.07512844  0.64450831     0.43800
H286        H  0.06380785  0.12959133  0.63891641     0.40200
H287        H  0.43649933  0.39747538  0.62706698     0.45200
H288        H  0.11160668  0.44927752  0.65477532     0.43900
H289        H  0.03285699  0.15864848  0.63724677     0.44000
H290        H  0.35628629  0.06025422  0.64902561     0.44400
O291        O  0.48958224  0.11415749  0.32703860    -0.74500
O292        O  0.49222470  0.06997601  0.30520185    -0.53400
C293        C  0.48995533  0.10320018  0.31017854     0.79200
O294        O  0.09293150  0.50444717  0.38905512    -0.59100
O295        O  0.04763506  0.51024587  0.41004238    -0.52100
C296        C  0.08241753  0.00317654  0.40692771     0.71200
O297        O  0.09479312  0.51251017  0.32752587    -0.73700
O298        O  0.05140559  0.51474557  0.30542951    -0.54200
C299        C  0.08756916  0.01280425  0.31121059     0.77200
O300        O  0.49413702  0.11512967  0.39014094    -0.58800
O301        O  0.49487192  0.06997436  0.41110657    -0.51900
C302        C  0.49488818  0.10316223  0.40683311     0.73800
Zr303      Zr  0.49416097  0.09036343  0.35841815     2.54700
O304        O  0.05423190  0.12510287  0.35517222    -0.79400
O305        O  0.45514871  0.14330908  0.36041210    -0.92800
Zr306      Zr  0.06826434  0.51282554  0.35806215     2.64700
O307        O  0.11985757  0.05105474  0.36126024    -0.97700
O308        O  0.11693090  0.46858257  0.35548235    -0.79800
O309        O  0.03602020  0.04853845  0.34027273    -0.83200
O310        O  0.03685151  0.04998797  0.37589376    -2.17900
O311        O  0.39285041  0.01637791  0.38935967    -0.66500
O312        O  0.43820014  0.01523891  0.41050521    -0.51100
C313        C  0.40429782  0.51382108  0.40611736     0.72200
O314        O  0.49774002  0.41238535  0.32817450    -0.59500
O315        O  0.49684294  0.45548822  0.30597743    -0.51400
C316        C  0.49830082  0.42242431  0.31123364     0.74000
O317        O  0.50179772  0.41576600  0.39088218    -0.70900
O318        O  0.49853943  0.46197273  0.41137755    -0.49500
C319        C  0.50186698  0.42864073  0.40745078     0.75400
O320        O  0.39267640  0.00731770  0.32874834    -0.66200
O321        O  0.43585403  0.00824699  0.30647032    -0.53400
C322        C  0.40032570  0.50463578  0.31235483     0.73800
Zr323      Zr  0.41953660  0.01491183  0.35874740     2.77500
O324        O  0.37280055  0.46799645  0.36137929    -0.96900
O325        O  0.37502051  0.06326977  0.35594415    -0.77800
Zr326      Zr  0.49487446  0.43881564  0.35904542     2.70100
O327        O  0.44309190  0.39962269  0.35994647    -0.79000
O328        O  0.03443900  0.38951489  0.35756298    -0.98100
Zr329      Zr  0.49278925  0.51321968  0.32236413     2.21500
Zr330      Zr  0.49334967  0.51508950  0.39325159     2.11100
O331        O  0.45570932  0.47576787  0.37673176    -2.46800
O332        O  0.45616041  0.47584544  0.34098356    -0.78800
O333        O  0.45538481  0.05428725  0.37630048    -0.71000
O334        O  0.03013417  0.47554611  0.34044521    -2.31900
O335        O  0.45620465  0.05250463  0.34058925    -2.28200
O336        O  0.03100851  0.47549856  0.37583119    -0.72700
H337        H  0.05250487  0.06334111  0.38393596     0.79300
H338        H  0.04521325  0.46032939  0.33281937     0.80300
H339        H  0.44171836  0.46125640  0.38490891     0.82600
H340        H  0.44068468  0.06671110  0.33274073     0.80200
H341        H  0.13779319  0.47990607  0.36153620     0.43200
H342        H  0.05657530  0.39907861  0.36321756     0.42200
H343        H  0.42926808  0.40555930  0.34869033     0.41900
H344        H  0.38107818  0.45209644  0.37142127     0.39800
H345        H  0.36193358  0.06377780  0.36779726     0.42900
H346        H  0.43322256  0.13682897  0.35350709     0.37700
H347        H  0.04549452  0.14817068  0.35004411     0.43800
H348        H  0.10857406  0.07421379  0.35774302     0.40200
H349        H  0.35100202  0.48035632  0.36627050     0.45200
H350        H  0.46701889  0.16152908  0.35274720     0.43900
H351        H  0.12461179  0.05357440  0.37457493     0.44000
H352        H  0.02536798  0.37177780  0.36642997     0.44400
N353        N  0.01521322  0.26577850  0.52837968    -0.35800
N354        N  0.01250997  0.21093278  0.50056518    -0.56400
N355        N  0.01320989  0.26604518  0.47306337    -0.35800
N356        N  0.01607452  0.32068562  0.50094225    -0.56400
C357        C  0.00412177  0.23717216  0.53798655     0.27800
C358        C  0.00544171  0.29510657  0.53817959     0.27800
C359        C  0.00186465  0.23750855  0.46332522     0.27800
C360        C  0.00375149  0.29556060  0.46343931     0.27800
C361        C  0.01992349  0.19039743  0.51534225     0.36400
C362        C  0.01891674  0.19050265  0.48555704     0.36400
C363        C  0.02356502  0.34080240  0.51584001     0.36400
C364        C  0.02248631  0.34105593  0.48609657     0.36400
C365        C  0.98678756  0.24837533  0.55392446    -0.21100
C366        C  0.98754287  0.28506236  0.55402973    -0.21100
C367        C  0.98465678  0.24900899  0.44743830    -0.21100
C368        C  0.98599244  0.28573206  0.44747147    -0.21100
C369        C  0.03127286  0.15654405  0.50975821    -0.22200
C370        C  0.03079502  0.15664555  0.49080019    -0.22200
C371        C  0.03520392  0.37426362  0.51047079    -0.22200
C372        C  0.03443284  0.37444908  0.49152382    -0.22200
C373        C  0.01260462  0.20131415  0.53358377    -0.17500
C374        C  0.01523823  0.33038399  0.53394990    -0.17500
C375        C  0.01338911  0.33084791  0.46802637    -0.17500
C376        C  0.01034260  0.20148182  0.46748139    -0.17500
H377        H  0.97549490  0.23179466  0.56456672     0.15400
H378        H  0.97689323  0.30233612  0.56477424     0.15400
H379        H  0.97325408  0.23259034  0.43668859     0.15400
H380        H  0.97567020  0.30316911  0.43678868     0.15400
H381        H  0.03814125  0.13395897  0.51841898     0.13700
H382        H  0.03728487  0.13411117  0.48193719     0.13700
H383        H  0.04207162  0.39657105  0.51926747     0.13700
H384        H  0.04066411  0.39689785  0.48278740     0.13700
H385        H  0.03268036  0.26510909  0.51716716     0.27000
H386        H  0.03066801  0.26521687  0.48426149     0.26900
N387        N  0.24386572  0.49614879  0.52858866    -0.35800
N388        N  0.29957728  0.50567256  0.50180911    -0.56400
N389        N  0.24537245  0.49609696  0.47284814    -0.35800
N390        N  0.18993216  0.48833680  0.49961982    -0.56400
C391        C  0.27086505  0.50791766  0.53946998     0.27800
C392        C  0.21289250  0.50031448  0.53819005     0.27800
C393        C  0.27341716  0.50908071  0.46332862     0.27800
C394        C  0.21570703  0.50073248  0.46224548     0.27800
C395        C  0.32071461  0.50269073  0.51688949     0.36400
C396        C  0.32142369  0.50224810  0.48705266     0.36400
C397        C  0.16956101  0.48007378  0.51426183     0.36400
C398        C  0.17061589  0.47984458  0.48455687     0.36400
C399        C  0.25690052  0.51903737  0.55625310    -0.21100
C400        C  0.22036691  0.51463338  0.55537662    -0.21100
C401        C  0.26154764  0.52175696  0.44643156    -0.21100
C402        C  0.22507768  0.51677174  0.44582085    -0.21100
C403        C  0.35639460  0.49777394  0.51170645    -0.22200
C404        C  0.35683767  0.49738284  0.49273711    -0.22200
C405        C  0.13707227  0.46595843  0.50852247    -0.22200
C406        C  0.13777382  0.46576291  0.48960518    -0.22200
C407        C  0.30801393  0.50677787  0.53512558    -0.17500
C408        C  0.17834674  0.48917061  0.53251474    -0.17500
C409        C  0.18075952  0.48899432  0.46654613    -0.17500
C410        C  0.30989309  0.50646831  0.46866115    -0.17500
H411        H  0.27141024  0.52904766  0.56804248     0.15400
H412        H  0.20155910  0.52064454  0.56637348     0.15400
H413        H  0.27751402  0.53298603  0.43550145     0.15400
H414        H  0.20761541  0.52360102  0.43440628     0.15400
H415        H  0.37960849  0.49513334  0.52063702     0.13700
H416        H  0.38050850  0.49452657  0.48412318     0.13700
H417        H  0.11482207  0.45774823  0.51706460     0.13700
H418        H  0.11619558  0.45745073  0.48061332     0.13700
H419        H  0.24679484  0.48222396  0.51628403     0.27000
H420        H  0.24737871  0.48091529  0.48475172     0.26900
C421        C  0.49621377  0.29621835  0.26162211     0.87300
C422        C  0.02870979  0.29187095  0.24938201    -0.53000
C423        C  0.03012151  0.26056539  0.23985606     0.10200
C424        C  0.49627983  0.23598555  0.24277692     0.21200
C425        C  0.46330780  0.29166406  0.24877211    -0.53700
C426        C  0.46240035  0.26013996  0.23898348     0.10300
C427        C  0.49511452  0.26178139  0.27340647    -0.53200
C428        C  0.49505834  0.23005512  0.26373932     0.10900
H429        H  0.04971388  0.31172404  0.24833361     0.15400
H430        H  0.49670451  0.21052216  0.23501005     0.01100
H431        H  0.44128680  0.31074479  0.24811451     0.15700
H432        H  0.49363124  0.26257404  0.28829526     0.15500
C433        C  0.50100129  0.39306878  0.29700070    -0.04500
C434        C  0.47928304  0.39330244  0.28104339    -0.01700
C435        C  0.48051054  0.36408757  0.26850920     0.03300
C436        C  0.49929392  0.33165557  0.27303008    -0.04500
C437        C  0.02355901  0.33494161  0.28743550    -0.01600
C438        C  0.02377552  0.36484741  0.29941010     0.03300
C439        C  0.45508735  0.42334713  0.27742512     0.38000
C440        C  0.05096628  0.30711661  0.28992531     0.38000
C441        C  0.05070445  0.36625716  0.31385821     0.36400
C442        C  0.46723609  0.37037351  0.25006250     0.36400
N443        N  0.07278440  0.36667535  0.32508220    -0.38400
N444        N  0.45703702  0.37603866  0.23530965    -0.38400
N445        N  0.07294102  0.28514231  0.29198635    -0.37900
N446        N  0.43549544  0.44699284  0.27434769    -0.37900
C447        C  0.48736684  0.13174685  0.29573849    -0.04500
C448        C  0.01148207  0.13385270  0.28070317    -0.01700
C449        C  0.01165466  0.16449396  0.26920966     0.03300
C450        C  0.49005001  0.19417197  0.27307412    -0.04500
C451        C  0.46271468  0.19038924  0.28653584    -0.01600
C452        C  0.46080164  0.15908944  0.29731530     0.03300
C453        C  0.03557872  0.10377912  0.27679490     0.38000
C454        C  0.43589169  0.21850153  0.28938654     0.38000
C455        C  0.43060494  0.15464227  0.30973194     0.36400
C456        C  0.03340114  0.16305540  0.25271693     0.36400
N457        N  0.40601465  0.15125619  0.31931383    -0.38400
N458        N  0.05020745  0.16016453  0.23937876    -0.38400
N459        N  0.41457446  0.24078381  0.29219638    -0.37900
N460        N  0.05468983  0.07973739  0.27362812    -0.37900
C461        C  0.00384274  0.12715111  0.42177030    -0.04500
C462        C  0.47715198  0.12360166  0.43886528    -0.01700
C463        C  0.47948738  0.14796017  0.45361571     0.03300
C464        C  0.00921518  0.17473215  0.45212474    -0.04500
C465        C  0.03143204  0.17896655  0.43649580    -0.01600
C466        C  0.02755631  0.15639564  0.42106895     0.03300
C467        C  0.45641747  0.09151239  0.44154259     0.38000
C468        C  0.05878852  0.20631562  0.43637622     0.38000
C469        C  0.05005241  0.16198281  0.40505280     0.36400
C470        C  0.45505963  0.14493568  0.46910753     0.36400
N471        N  0.06820163  0.16671496  0.39238951    -0.38400
N472        N  0.43556615  0.14227352  0.48142038    -0.38400
N473        N  0.08070232  0.22801122  0.43624776    -0.37900
N474        N  0.44133322  0.06535400  0.44461192    -0.37900
C475        C  0.50615847  0.40390715  0.42346512    -0.04500
C476        C  0.03016867  0.37902221  0.42300558    -0.01700
C477        C  0.03562249  0.35694918  0.43845223     0.03300
C478        C  0.01108739  0.35828654  0.45324897    -0.04500
C479        C  0.48794143  0.38538281  0.45446667    -0.01600
C480        C  0.48436712  0.40872358  0.43938118     0.03300
C481        C  0.05565972  0.37692569  0.40794419     0.38000
C482        C  0.46304805  0.38866779  0.46980807     0.38000
C483        C  0.45833331  0.43794198  0.44066348     0.36400
C484        C  0.06695596  0.33325865  0.43931760     0.36400
N485        N  0.43816746  0.46160500  0.44247169    -0.38400
N486        N  0.09223434  0.31475344  0.44002910    -0.38400
N487        N  0.44304929  0.39163992  0.48194126    -0.37900
N488        N  0.07645377  0.37473260  0.39613855    -0.37900
C489        C  0.10677670  0.50106426  0.42109227    -0.04500
C490        C  0.10727247  0.02184002  0.43776505    -0.01700
C491        C  0.12992698  0.01582665  0.45303418     0.03300
C492        C  0.15290085  0.49077087  0.45172390    -0.04500
C493        C  0.15500714  0.46720105  0.43651770    -0.01600
C494        C  0.13225018  0.47245349  0.42118851     0.03300
C495        C  0.08504950  0.05411109  0.43739621     0.38000
C496        C  0.18100403  0.43776110  0.43657880     0.38000
C497        C  0.13524078  0.44828369  0.40559719     0.36400
C498        C  0.12991875  0.04122926  0.46820089     0.36400
N499        N  0.13818806  0.42902593  0.39317412    -0.38400
N500        N  0.13009311  0.06125297  0.48037241    -0.38400
N501        N  0.20174293  0.41427691  0.43655663    -0.37900
N502        N  0.06801229  0.08031551  0.43756364    -0.37900
C503        C  0.37823336  0.51232240  0.42130687    -0.04500
C504        C  0.36906192  0.54376945  0.43110262    -0.01700
C505        C  0.34866654  0.54165164  0.44735652     0.03300
C506        C  0.33675415  0.50810856  0.45357086    -0.04500
C507        C  0.34429006  0.47689210  0.44317448    -0.01600
C508        C  0.36467958  0.47904881  0.42692898     0.03300
C509        C  0.37323947  0.07836206  0.42330609     0.38000
C510        C  0.33014867  0.44276144  0.44901556     0.38000
C511        C  0.37191481  0.44703013  0.41608441     0.36400
C512        C  0.33798423  0.57403816  0.45712278     0.36400
N513        N  0.37755586  0.42137740  0.40751409    -0.38400
N514        N  0.32897810  0.59976445  0.46488326    -0.38400
N515        N  0.31864646  0.41569558  0.45374596    -0.37900
N516        N  0.37803684  0.10650652  0.41727332    -0.37900
C517        C  0.10321868  0.99901350  0.57819815    -0.04500
C518        C  0.10305737  0.02367949  0.56346971    -0.01700
C519        C  0.12751479  0.01945363  0.54879715     0.03300
C520        C  0.14933667  0.49029236  0.54663023    -0.04500
C521        C  0.14949691  0.46487638  0.56087226    -0.01600
C522        C  0.12735547  0.47017475  0.57642821     0.03300
C523        C  0.07903799  0.05460293  0.56363253     0.38000
C524        C  0.17366344  0.43401217  0.55966766     0.38000
C525        C  0.12827647  0.44396082  0.59102846     0.36400
C526        C  0.12971007  0.04683880  0.53475830     0.36400
N527        N  0.12961437  0.42278346  0.60256525    -0.38400
N528        N  0.13191133  0.06881038  0.52367546    -0.38400
N529        N  0.19328568  0.40971312  0.55845290    -0.37900
N530        N  0.06020370  0.07953544  0.56325931    -0.37900
C531        C  0.37465763  0.51683993  0.58362453    -0.04500
C532        C  0.36389160  0.04555819  0.57512846    -0.01700
C533        C  0.34382253  0.04370551  0.55870137     0.03300
C534        C  0.33399932  0.51040377  0.55080997    -0.04500
C535        C  0.34607686  0.47950325  0.56025843    -0.01600
C536        C  0.36610442  0.48274672  0.57665227     0.03300
C537        C  0.37081466  0.07996371  0.58365147     0.38000
C538        C  0.33782699  0.44430555  0.55310677     0.38000
C539        C  0.37746433  0.45098697  0.58666801     0.36400
C540        C  0.33079471  0.07633384  0.55006552     0.36400
N541        N  0.38657537  0.42589086  0.59481933    -0.38400
N542        N  0.32037057  0.10244710  0.54324742    -0.38400
N543        N  0.33139337  0.41617114  0.54738942    -0.37900
N544        N  0.37642937  0.10736366  0.59046738    -0.37900
C545        C  0.49910837  0.12881572  0.58119664    -0.04500
C546        C  0.47773515  0.12386354  0.56515937    -0.01700
C547        C  0.48001298  0.14785461  0.55034988     0.03300
C548        C  0.01128393  0.17465329  0.54882870    -0.04500
C549        C  0.03505715  0.17749537  0.56392525    -0.01600
C550        C  0.03055472  0.15590969  0.57963002     0.03300
C551        C  0.45518637  0.09283823  0.56293982     0.38000
C552        C  0.06439182  0.20268508  0.56321036     0.38000
C553        C  0.05621549  0.15859017  0.59456450     0.36400
C554        C  0.45323489  0.14712084  0.53581344     0.36400
N555        N  0.07734175  0.16108088  0.60617147    -0.38400
N556        N  0.43159841  0.14703966  0.52436379    -0.38400
N557        N  0.08781205  0.22272709  0.56259312    -0.37900
N558        N  0.43847366  0.06748140  0.56024184    -0.37900
C559        C  0.50379537  0.40315708  0.58013037    -0.04500
C560        C  0.02920711  0.37610756  0.58021469    -0.01700
C561        C  0.03492995  0.35375268  0.56481914     0.03300
C562        C  0.51217641  0.35580485  0.55001693    -0.04500
C563        C  0.48432225  0.38171899  0.54998260    -0.01600
C564        C  0.48211215  0.40716896  0.56417462     0.03300
C565        C  0.05150865  0.37104057  0.59640717     0.38000
C566        C  0.45673906  0.38096316  0.53584162     0.38000
C567        C  0.45819537  0.43784552  0.56176515     0.36400
C568        C  0.06289381  0.32616916  0.56546948     0.36400
N569        N  0.44017376  0.46285681  0.55913662    -0.38400
N570        N  0.08516679  0.30419205  0.56627592    -0.38400
N571        N  0.43433853  0.37974186  0.52480649    -0.37900
N572        N  0.06940429  0.36646511  0.60923072    -0.37900
C573        C  0.12347520  0.25007720  0.20376951    -0.04500
C574        C  0.12277804  0.23139991  0.22063390    -0.01700
C575        C  0.09262404  0.23509268  0.23257915     0.03300
C576        C  0.06103874  0.25384379  0.22689585    -0.04500
C577        C  0.06217840  0.27335905  0.21036482    -0.01600
C578        C  0.09342003  0.27251833  0.19927191     0.03300
C579        C  0.15294205  0.20838254  0.22576426     0.38000
C580        C  0.03195086  0.29662438  0.20540828     0.38000
C581        C  0.09538097  0.29727670  0.18401023     0.36400
C582        C  0.09566580  0.22271204  0.25135067     0.36400
N583        N  0.09659234  0.31777833  0.17216961    -0.38400
N584        N  0.09864660  0.21334976  0.26641665    -0.38400
N585        N  0.50740104  0.31153900  0.19995406    -0.37900
N586        N  0.17705481  0.18995455  0.22975670    -0.37900
C587        C  0.36863495  0.23473426  0.20396581    -0.04500
C588        C  0.36377880  0.25114008  0.22138105    -0.01700
C589        C  0.39371905  0.25757789  0.23307910     0.03300
C590        C  0.42983800  0.24954664  0.22733516    -0.04500
C591        C  0.43433599  0.23149054  0.21029242    -0.01600
C592        C  0.40413082  0.22267721  0.19927178     0.03300
C593        C  0.32797230  0.26224370  0.22742354     0.38000
C594        C  0.47009478  0.22296359  0.20330001     0.38000
C595        C  0.41015608  0.19994639  0.18328870     0.36400
C596        C  0.38634257  0.27267786  0.25109567     0.36400
N597        N  0.41576852  0.18155297  0.17074500    -0.38400
N598        N  0.37945487  0.28558954  0.26516685    -0.38400
N599        N  0.49821269  0.21555538  0.19737412    -0.37900
N600        N  0.29953500  0.27105561  0.23240475    -0.37900
C601        C  0.25395551  0.07755141  0.04885779    -0.04500
C602        C  0.22826161  0.10566441  0.04853825    -0.01700
C603        C  0.22649666  0.13021530  0.06318471     0.03300
C604        C  0.24715529  0.12413590  0.07934139    -0.04500
C605        C  0.27267395  0.09559063  0.07961433    -0.01600
C606        C  0.27736677  0.07372127  0.06399073     0.03300
C607        C  0.20380952  0.10954945  0.03304027     0.38000
C608        C  0.29548189  0.08950471  0.09551042     0.38000
C609        C  0.30712460  0.04807240  0.06312688     0.36400
C610        C  0.20502435  0.16259254  0.06079022     0.36400
N611        N  0.33125013  0.02811155  0.06225515    -0.38400
N612        N  0.18903469  0.18877284  0.05785288    -0.38400
N613        N  0.31382172  0.08396623  0.10807125    -0.37900
N614        N  0.18447062  0.11270704  0.02065410    -0.37900
C615        C  0.25291732  0.34912833  0.07854804    -0.04500
C616        C  0.23247427  0.34332352  0.06226905    -0.01700
C617        C  0.23262811  0.36855679  0.04786927     0.03300
C618        C  0.25725456  0.39692749  0.04810433    -0.04500
C619        C  0.28052454  0.40055232  0.06337079    -0.01600
C620        C  0.27713037  0.37808048  0.07884344     0.03300
C621        C  0.21296658  0.31044656  0.05944354     0.38000
C622        C  0.30903884  0.42668692  0.06288463     0.38000
C623        C  0.30130533  0.38300927  0.09425436     0.36400
C624        C  0.20684679  0.36555341  0.03295245     0.36400
N625        N  0.32135301  0.38738129  0.10619176    -0.38400
N626        N  0.18616806  0.36320629  0.02111840    -0.38400
N627        N  0.33211564  0.44714601  0.06248984    -0.37900
N628        N  0.19859601  0.28379161  0.05643695    -0.37900
C629        C  0.25231440  0.12877184  0.92259359    -0.04500
C630        C  0.22479122  0.12882822  0.93602635    -0.01700
C631        C  0.22727152  0.10606970  0.95139661     0.03300
C632        C  0.25717469  0.08264904  0.95340880    -0.04500
C633        C  0.28505663  0.08285779  0.94018796    -0.01600
C634        C  0.28277425  0.10599379  0.92488733     0.03300
C635        C  0.19288415  0.15106441  0.93362338     0.38000
C636        C  0.31595329  0.05894337  0.94232242     0.38000
C637        C  0.31211698  0.10683144  0.91174258     0.36400
C638        C  0.19831948  0.10579383  0.96480613     0.36400
N639        N  0.33565915  0.10742280  0.90132033    -0.38400
N640        N  0.17512438  0.10569683  0.97543763    -0.38400
N641        N  0.34050949  0.03975570  0.94408480    -0.37900
N642        N  0.16704893  0.16835875  0.93181322    -0.37900
C643        C  0.25951133  0.40018161  0.95162355    -0.04500
C644        C  0.29160387  0.39214941  0.94195396    -0.01700
C645        C  0.29060298  0.36977647  0.92639622     0.03300
C646        C  0.25726676  0.35685518  0.92015303    -0.04500
C647        C  0.22496206  0.36726958  0.92896453    -0.01600
C648        C  0.22622868  0.38726463  0.94529836     0.03300
C649        C  0.32538477  0.40748321  0.94787153     0.38000
C650        C  0.19050424  0.35849297  0.92077130     0.38000
C651        C  0.19336369  0.39541141  0.95539658     0.36400
C652        C  0.32373947  0.35988442  0.91692994     0.36400
N653        N  0.16733884  0.40187224  0.96361575    -0.38400
N654        N  0.35029240  0.35197639  0.90949430    -0.38400
N655        N  0.16317894  0.35150022  0.91408924    -0.37900
N656        N  0.35219501  0.42001853  0.95257720    -0.37900
C657        C  0.51319174  0.12998112  0.70764560    -0.04500
C658        C  0.49377916  0.13074872  0.72434580    -0.01700
C659        C  0.48977977  0.16319696  0.73441846     0.03300
C660        C  0.50861634  0.19420431  0.72896912    -0.04500
C661        C  0.03537057  0.19248578  0.71445899    -0.01600
C662        C  0.03729191  0.16086850  0.70372449     0.03300
C663        C  0.48031262  0.09776298  0.73188858     0.38000
C664        C  0.06215521  0.21989322  0.71177402     0.38000
C665        C  0.06571539  0.15645188  0.69017273     0.36400
C666        C  0.46523197  0.16442796  0.74989902     0.36400
N667        N  0.08889516  0.15277537  0.67965680    -0.38400
N668        N  0.44562367  0.16488521  0.76227186    -0.38400
N669        N  0.08377558  0.24153172  0.70977563    -0.37900
N670        N  0.47098734  0.07111974  0.73825498    -0.37900
C671        C  0.49482349  0.33140182  0.72838561    -0.04500
C672        C  0.00706318  0.36647341  0.73380539    -0.01700
C673        C  0.00871536  0.39546722  0.72138520     0.03300
C674        C  0.49054801  0.39378219  0.70515298    -0.04500
C675        C  0.46933645  0.36333250  0.70149064    -0.01600
C676        C  0.47142528  0.33267942  0.71283348     0.03300
C677        C  0.01615246  0.37361102  0.75278167     0.38000
C678        C  0.44469599  0.36303424  0.68598361     0.38000
C679        C  0.44892272  0.30258118  0.70803627     0.36400
C680        C  0.03209847  0.42515782  0.72556022     0.36400
N681        N  0.43156659  0.27863333  0.70350185    -0.38400
N682        N  0.05122037  0.44848531  0.72886705    -0.38400
N683        N  0.42493809  0.36170199  0.67371472    -0.37900
N684        N  0.02276349  0.38083764  0.76786067    -0.37900
C685        C  0.06313942  0.25899128  0.77602758    -0.04500
C686        C  0.08841310  0.23035548  0.77376535    -0.01700
C687        C  0.11984583  0.22802081  0.78492210     0.03300
C688        C  0.12667250  0.25429992  0.79840964    -0.04500
C689        C  0.10118333  0.28261216  0.80084046    -0.01600
C690        C  0.06943051  0.28438313  0.79012219     0.03300
C691        C  0.08239811  0.20261418  0.76026402     0.38000
C692        C  0.10826924  0.31106746  0.81396825     0.38000
C693        C  0.04197399  0.31108912  0.79462635     0.36400
C694        C  0.14460707  0.19778753  0.78296165     0.36400
N695        N  0.02004762  0.33194189  0.79882161    -0.38400
N696        N  0.16436628  0.17366111  0.78144707    -0.38400
N697        N  0.11421354  0.33417630  0.82411194    -0.37900
N698        N  0.07895206  0.17928400  0.74995360    -0.37900
C699        C  0.37366964  0.24086328  0.79877828    -0.04500
C700        C  0.40975751  0.23175279  0.80424957    -0.01700
C701        C  0.43959905  0.23854335  0.79264237     0.03300
C702        C  0.43437390  0.25112297  0.77457022    -0.04500
C703        C  0.39823650  0.25726964  0.76855714    -0.01600
C704        C  0.36862257  0.25418758  0.78077631     0.03300
C705        C  0.41735181  0.21582569  0.82203250     0.38000
C706        C  0.39073329  0.26681020  0.74966375     0.38000
C707        C  0.33341575  0.26752020  0.77504092     0.36400
C708        C  0.47577311  0.23455435  0.80003199     0.36400
N709        N  0.30552132  0.27875759  0.77056433    -0.38400
N710        N  0.50416843  0.23127552  0.80645224    -0.38400
N711        N  0.38359246  0.27462275  0.73473402    -0.37900
N712        N  0.42463277  0.20341294  0.83611876    -0.37900
C713        C  0.31325287  0.99743331  0.72823017    -0.04500
C714        C  0.33970048  0.02276612  0.73275774    -0.01700
C715        C  0.36928135  0.02837340  0.72087150     0.03300
C716        C  0.37781204  0.50428622  0.70653908    -0.04500
C717        C  0.35492926  0.47454164  0.70422341    -0.01600
C718        C  0.32323845  0.47124863  0.71489252     0.03300
C719        C  0.33947127  0.03951769  0.75073101     0.38000
C720        C  0.36381183  0.44714215  0.69070773     0.38000
C721        C  0.29937084  0.44147793  0.71149832     0.36400
C722        C  0.38835950  0.06165211  0.72226083     0.36400
N723        N  0.28018648  0.41786221  0.70887648    -0.38400
N724        N  0.40145828  0.08947058  0.72324471    -0.38400
N725        N  0.37070408  0.42508127  0.68001101    -0.37900
N726        N  0.34033085  0.05203137  0.76529627    -0.37900
C727        C  0.18362089  0.00581011  0.72548069    -0.04500
C728        C  0.14945862  0.51043511  0.73353640    -0.01700
C729        C  0.12008521  0.51622424  0.72131025     0.03300
C730        C  0.12307654  0.01415279  0.70112393    -0.04500
C731        C  0.15955508  0.01292151  0.69436271    -0.01600
C732        C  0.18925232  0.00988894  0.70655065     0.03300
C733        C  0.14234585  0.51069089  0.75306566     0.38000
C734        C  0.16787518  0.01479401  0.67489551     0.38000
C735        C  0.22579486  0.01032005  0.69942632     0.36400
C736        C  0.08547271  0.52753457  0.72884330     0.36400
N737        N  0.25466101  0.01142977  0.69345683    -0.38400
N738        N  0.05817907  0.53706936  0.73501208    -0.38400
N739        N  0.17538441  0.01621169  0.65948397    -0.37900
N740        N  0.13450656  0.51088619  0.76842734    -0.37900
C741        C  0.23685559  0.12331521  0.79641295    -0.04500
C742        C  0.21202566  0.09576987  0.79925301    -0.01700
C743        C  0.21418086  0.06384737  0.78883575     0.03300
C744        C  0.23821248  0.06062616  0.77352900    -0.04500
C745        C  0.25723885  0.09195457  0.76841987    -0.01600
C746        C  0.25838934  0.12200595  0.78042266     0.03300
C747        C  0.18281196  0.10099820  0.81234900     0.38000
C748        C  0.27527674  0.09470109  0.75087698     0.38000
C749        C  0.28262224  0.15112388  0.77648029     0.36400
C750        C  0.19168442  0.03455300  0.79463318     0.36400
N751        N  0.30201216  0.17428617  0.77334091    -0.38400
N752        N  0.17712399  0.51112732  0.80054814    -0.38400
N753        N  0.28935117  0.09864055  0.73684740    -0.37900
N754        N  0.15880617  0.10521374  0.82232422    -0.37900
C755        C  0.24670898  0.42421903  0.77564278    -0.04500
C756        C  0.21626360  0.40158826  0.77774986    -0.01700
C757        C  0.21968981  0.36826880  0.78677687     0.03300
C758        C  0.25109527  0.35940007  0.79663568    -0.04500
C759        C  0.28036252  0.38289317  0.79618773    -0.01600
C760        C  0.27833676  0.41495374  0.78593503     0.03300
C761        C  0.17987974  0.41390671  0.77369983     0.38000
C762        C  0.31288845  0.37376358  0.80638140     0.38000
C763        C  0.30844376  0.43922628  0.78709820     0.36400
C764        C  0.19015869  0.34342726  0.78619782     0.36400
N765        N  0.33257294  0.45838692  0.78818237    -0.38400
N766        N  0.16656191  0.32374564  0.78500401    -0.38400
N767        N  0.33865599  0.36616246  0.81453890    -0.37900
N768        N  0.15047054  0.42303867  0.77074844    -0.37900
C769        C  0.08842892  0.23365006  0.04925967    -0.04500
C770        C  0.09649329  0.20214213  0.05915805    -0.01700
C771        C  0.11726009  0.20398860  0.07525750     0.03300
C772        C  0.13012872  0.23731785  0.08129351    -0.04500
C773        C  0.12097995  0.26894485  0.07182341    -0.01600
C774        C  0.10087554  0.26704897  0.05551767     0.03300
C775        C  0.08342134  0.16792142  0.05268897     0.38000
C776        C  0.13173498  0.30341829  0.07909752     0.38000
C777        C  0.09242998  0.29947107  0.04539169     0.36400
C778        C  0.12651268  0.17156219  0.08526627     0.36400
N779        N  0.08596475  0.32552231  0.03740953    -0.38400
N780        N  0.13429763  0.14575334  0.09317425    -0.38400
N781        N  0.14036020  0.33086609  0.08491341    -0.37900
N782        N  0.07298302  0.14070271  0.04743427    -0.37900
C783        C  0.40620570  0.21714048  0.04899105    -0.04500
C784        C  0.38591438  0.24909109  0.05133905    -0.01700
C785        C  0.36272007  0.25314663  0.06656847     0.03300
C786        C  0.35965934  0.22533475  0.07955497    -0.04500
C787        C  0.38058544  0.19366998  0.07735557    -0.01600
C788        C  0.40365641  0.18956643  0.06207658     0.03300
C789        C  0.39034372  0.27849520  0.03858881     0.38000
C790        C  0.37849344  0.16522911  0.09078226     0.38000
C791        C  0.42556054  0.15729723  0.05995046     0.36400
C792        C  0.34394630  0.28694567  0.06948635     0.36400
N793        N  0.44330626  0.13175555  0.05816442    -0.38400
N794        N  0.32968770  0.31434355  0.07172329    -0.38400
N795        N  0.37721825  0.14249787  0.10149864    -0.37900
N796        N  0.39399763  0.30205566  0.02851604    -0.37900
C797        C  0.08871216  0.23690017  0.95273603    -0.04500
C798        C  0.08452021  0.21461587  0.93714687    -0.01700
C799        C  0.10581284  0.21975975  0.92141926     0.03300
C800        C  0.13490433  0.24372515  0.92209152    -0.04500
C801        C  0.14107698  0.26346858  0.93846627    -0.01600
C802        C  0.11605856  0.26256248  0.95291658     0.03300
C803        C  0.05913895  0.18546341  0.93749479     0.38000
C804        C  0.17455510  0.28196139  0.94153433     0.38000
C805        C  0.11828689  0.28840027  0.96782088     0.36400
C806        C  0.09985075  0.19758060  0.90530729     0.36400
N807        N  0.11989253  0.30915209  0.97963265    -0.38400
N808        N  0.09485627  0.17958027  0.89261475    -0.38400
N809        N  0.20182916  0.29508756  0.94485590    -0.37900
N810        N  0.03933417  0.16186256  0.93771867    -0.37900
C811        C  0.40770818  0.22397711  0.95362286    -0.04500
C812        C  0.41183342  0.20206647  0.93791915    -0.01700
C813        C  0.38989344  0.20779828  0.92239443     0.03300
C814        C  0.36148844  0.23354545  0.92303626    -0.04500
C815        C  0.35617980  0.25399750  0.93935995    -0.01600
C816        C  0.38059210  0.25069340  0.95406830     0.03300
C817        C  0.43861670  0.17334020  0.93783437     0.38000
C818        C  0.32518562  0.27770307  0.94160595     0.38000
C819        C  0.37881535  0.27570775  0.96939085     0.36400
C820        C  0.39610503  0.18610064  0.90609654     0.36400
N821        N  0.37801608  0.29573807  0.98156347    -0.38400
N822        N  0.40182639  0.16871229  0.89320186    -0.38400
N823        N  0.30008899  0.29577820  0.94422447    -0.37900
N824        N  0.45965530  0.15014455  0.93782528    -0.37900
C825        C  0.31006398  0.99729608  0.27475615    -0.04500
C826        C  0.34039417  0.51290313  0.26931829    -0.01700
C827        C  0.37002003  0.51672658  0.28146395     0.03300
C828        C  0.37010137  0.49960261  0.29877269    -0.04500
C829        C  0.34243864  0.97893113  0.30270804    -0.01600
C830        C  0.31133918  0.97819790  0.29143298     0.03300
C831        C  0.34403756  0.52381130  0.25034133     0.38000
C832        C  0.34437715  0.95477725  0.31824239     0.38000
C833        C  0.28129072  0.95569112  0.29641801     0.36400
C834        C  0.39976379  0.53930129  0.27630640     0.36400
N835        N  0.25736053  0.93766733  0.30024979    -0.38400
N836        N  0.42336380  0.55768171  0.27239642    -0.38400
N837        N  0.34532263  0.93461199  0.33026123    -0.37900
N838        N  0.34739618  0.53219254  0.23515855    -0.37900
C839        C  0.11753853  0.01220503  0.29712641    -0.04500
C840        C  0.11136152  0.49587675  0.27914023    -0.01700
C841        C  0.14168154  0.49011752  0.26740580     0.03300
C842        C  0.17931465  0.99922543  0.27387773    -0.04500
C843        C  0.18271847  0.01745587  0.29089898    -0.01600
C844        C  0.15186663  0.02602833  0.30163486     0.03300
C845        C  0.07604578  0.48424058  0.27320530     0.38000
C846        C  0.21785691  0.02658842  0.29808418     0.38000
C847        C  0.15537893  0.05125185  0.31671518     0.36400
C848        C  0.13508418  0.47545154  0.24926527     0.36400
N849        N  0.15861228  0.07224775  0.32830413    -0.38400
N850        N  0.12882198  0.46310854  0.23503343    -0.38400
N851        N  0.24552900  0.03433801  0.30413417    -0.37900
N852        N  0.04783828  0.47516164  0.26844772    -0.37900
C853        C  0.23673321  0.05616932  0.22803945    -0.04500
C854        C  0.25730855  0.08687263  0.23247161    -0.01700
C855        C  0.25680686  0.11730400  0.22079477     0.03300
C856        C  0.23390194  0.11863570  0.20528933    -0.04500
C857        C  0.20913949  0.09070751  0.20271429    -0.01600
C858        C  0.21090700  0.05958898  0.21369432     0.03300
C859        C  0.27866429  0.08823429  0.24908405     0.38000
C860        C  0.18082978  0.09438158  0.18902943     0.38000
C861        C  0.18523252  0.03150975  0.21018187     0.36400
C862        C  0.28097736  0.14668012  0.22439790     0.36400
N863        N  0.16469404  0.00946866  0.20678943    -0.38400
N864        N  0.30020180  0.17018090  0.22721004    -0.38400
N865        N  0.15786543  0.09722638  0.17834829    -0.37900
N866        N  0.29509116  0.09092723  0.26252484    -0.37900
C867        C  0.25500308  0.35559876  0.20500053    -0.04500
C868        C  0.27896951  0.38424790  0.20241720    -0.01700
C869        C  0.27735409  0.41475863  0.21396598     0.03300
C870        C  0.25188697  0.41710948  0.22856497    -0.04500
C871        C  0.23458152  0.38478657  0.23351916    -0.01600
C872        C  0.23377206  0.35546916  0.22113356     0.03300
C873        C  0.30692313  0.38167612  0.18850053     0.38000
C874        C  0.22269804  0.37898261  0.25222570     0.38000
C875        C  0.21060750  0.32554746  0.22509855     0.36400
C876        C  0.30358112  0.44274153  0.21129222     0.36400
N877        N  0.19189798  0.30193465  0.22842136    -0.38400
N878        N  0.32458684  0.46491494  0.20913052    -0.38400
N879        N  0.21378035  0.37407472  0.26723460    -0.37900
N880        N  0.32987522  0.37997776  0.17775341    -0.37900
C881        C  0.24740313  0.95407270  0.23944684     0.87300
C882        C  0.28015130  0.95973450  0.25162296    -0.53000
C883        C  0.27823587  0.48912177  0.26204472     0.10200
C884        C  0.24397202  0.51291416  0.25824727     0.21200
C885        C  0.21457190  0.95792261  0.25242700    -0.53700
C886        C  0.21073853  0.48865741  0.26168238     0.10300
C887        C  0.24416120  0.98852954  0.22773516    -0.53200
C888        C  0.24367870  0.51850968  0.23722629     0.10900
H889        H  0.30225513  0.94034797  0.25249092     0.15400
H890        H  0.24295440  0.53843396  0.26593663     0.01100
H891        H  0.19341289  0.93845510  0.25300908     0.15700
H892        H  0.24495201  0.48567453  0.21280011     0.15500
N893        N  0.49625451  0.71689934  0.97387888    -0.35800
N894        N  0.43989724  0.71763806  0.00132185    -0.56400
N895        N  0.49436413  0.71325006  0.02937562    -0.35800
N896        N  0.05377273  0.72195490  0.00222275    -0.56400
C897        C  0.46736621  0.72886141  0.96427690     0.27800
C898        C  0.02739031  0.73867358  0.96599352     0.27800
C899        C  0.46498610  0.72241269  0.03943088     0.27800
C900        C  0.02727659  0.72353942  0.04071014     0.27800
C901        C  0.41967473  0.71249816  0.98619106     0.36400
C902        C  0.41856360  0.71097134  0.01585976     0.36400
C903        C  0.07460143  0.71772910  0.98713773     0.36400
C904        C  0.07461796  0.71387277  0.01679363     0.36400
C905        C  0.47865621  0.74701128  0.94878989    -0.21100
C906        C  0.01601272  0.75949810  0.95131793    -0.21100
C907        C  0.47549131  0.73542332  0.05643678    -0.21100
C908        C  0.01652049  0.73405658  0.05824780    -0.21100
C909        C  0.38520519  0.70236618  0.99109884    -0.22200
C910        C  0.38445835  0.70157373  0.01001250    -0.22200
C911        C  0.10898901  0.70639920  0.99212260    -0.22200
C912        C  0.10914662  0.70449231  0.01104076    -0.22200
C913        C  0.43119305  0.72102937  0.96831211    -0.17500
C914        C  0.06337272  0.72824162  0.96939954    -0.17500
C915        C  0.06350731  0.71850743  0.03514790    -0.21500
C916        C  0.42895178  0.71663292  0.03421664    -0.17500
H917        H  0.46194468  0.75921522  0.93827658     0.15400
H918        H  0.03265755  0.77241549  0.94117523     0.15400
H919        H  0.45833624  0.74432482  0.06764390     0.15400
H920        H  0.03341839  0.74083393  0.06982668     0.15400
H921        H  0.36272245  0.69725182  0.98203643     0.13700
H922        H  0.36136712  0.69556849  0.01848528     0.13700
H923        H  0.13186097  0.70153502  0.98316974     0.13700
H924        H  0.13209662  0.69763199  0.01959102     0.13700
H925        H  0.49568177  0.69884355  0.98473715     0.27000
H926        H  0.49447812  0.69893286  0.01709534     0.26900
C927        C  0.24398371  0.95848294  0.76154895     0.87300
C928        C  0.21367395  0.96369149  0.74721507    -0.53000
C929        C  0.21556700  0.49460364  0.73971512     0.10200
C930        C  0.24921361  0.51727818  0.74371138     0.21200
C931        C  0.27788647  0.96138077  0.74982673    -0.53700
C932        C  0.28244301  0.49118380  0.74107907     0.10300
C933        C  0.24340310  0.99288183  0.77323846    -0.53200
C934        C  0.24667346  0.52452873  0.76469500     0.10900
H935        H  0.19454302  0.94379380  0.74309513     0.15400
H936        H  0.24968483  0.54115402  0.73486750     0.01100
H937        H  0.29837458  0.94029005  0.74909886     0.15700
H938        H  0.24751935  0.49249176  0.78945557     0.15500
C939        C  0.99445183  0.79788560  0.73915571     0.87300
C940        C  0.46614009  0.78898845  0.75184553    -0.53000
C941        C  0.46627939  0.75779050  0.76158815     0.10200
C942        C  0.99871143  0.73789871  0.75794993     0.21200
C943        C  0.02840804  0.79414137  0.75132582    -0.53700
C944        C  0.03063271  0.76339662  0.76144721     0.10300
C945        C  0.99705338  0.76353786  0.72734983    -0.53200
C946        C  0.99917658  0.73208789  0.73690299     0.10900
H947        H  0.44402396  0.80835872  0.75257398     0.15400
H948        H  0.00099838  0.71261733  0.76579812     0.01100
H949        H  0.05021039  0.81309741  0.75143481     0.15700
H950        H  0.99877938  0.76401591  0.71249095     0.15500
N951        N  0.26072709  0.48864523  0.02746162    -0.35800
N952        N  0.24778549  0.93280057  0.00016664    -0.56400
N953        N  0.26332197  0.49136683  0.97198059    -0.35800
N954        N  0.26358417  0.54499868  0.99970406    -0.56400
C955        C  0.24083294  0.95746415  0.03772833     0.27800
C956        C  0.25103820  0.51817353  0.03708395     0.27800
C957        C  0.24092685  0.96218503  0.96288887     0.27800
C958        C  0.25606307  0.52084584  0.96179470     0.27800
C959        C  0.25452220  0.91111863  0.01459424     0.36400
C960        C  0.25417810  0.91326711  0.98490027     0.36400
C961        C  0.27054345  0.56430983  0.01492178     0.36400
C962        C  0.27144403  0.56589982  0.98519750     0.36400
C963        C  0.22515170  0.96895903  0.05404050    -0.21100
C964        C  0.23319148  0.50834930  0.05300972    -0.21100
C965        C  0.22563103  0.97470633  0.94668823    -0.21100
C966        C  0.24150146  0.51089883  0.94504183    -0.21100
C967        C  0.26532643  0.87743059  0.00846471    -0.22200
C968        C  0.26473731  0.87869781  0.98953704    -0.22200
C969        C  0.28304484  0.59780067  0.01010203    -0.22200
C970        C  0.28343266  0.59886071  0.99117581    -0.22200
C971        C  0.24792086  0.92132028  0.03300570    -0.17500
C972        C  0.26146530  0.55334509  0.03284895    -0.17500
C973        C  0.26449295  0.55625629  0.96680026    -0.17500
C974        C  0.24746138  0.92585332  0.96701535    -0.17500
H975        H  0.21430705  0.95253966  0.06487300     0.15400
H976        H  0.22271636  0.52583972  0.06370760     0.15400
H977        H  0.21423163  0.95908252  0.93563832     0.15400
H978        H  0.23341062  0.52818225  0.93382487     0.15400
H979        H  0.27203043  0.85423848  0.01672545     0.13700
H980        H  0.27087981  0.85668600  0.98027282     0.13700
H981        H  0.28996488  0.61954659  0.01925099     0.13700
H982        H  0.29087354  0.62144083  0.98279440     0.13700
H983        H  0.27834503  0.48804516  0.01632190     0.27000
H984        H  0.27835912  0.49024653  0.98403033     0.26900
O985        O  0.34669689  0.73882485  0.88982532    -0.74500
O986        O  0.30053882  0.74133807  0.91047673    -0.53400
C987        C  0.33404299  0.73895523  0.90639102     0.79200
O988        O  0.24892605  0.84288999  0.82627292    -0.59100
O989        O  0.24788384  0.79900366  0.80429666    -0.52100
C990        C  0.24857515  0.83203916  0.80949790     0.71200
O991        O  0.24711288  0.84556813  0.88741421    -0.73700
O992        O  0.24736658  0.80080012  0.90873067    -0.54200
C993        C  0.24721225  0.83383300  0.90395515     0.77200
O994        O  0.35027983  0.74394670  0.82847157    -0.58800
O995        O  0.30798861  0.73989713  0.80601232    -0.51900
C996        C  0.34139198  0.74157401  0.81150865     0.73800
Zr997      Zr  0.32223475  0.74095936  0.85828990     2.54700
O998        O  0.37188699  0.78265913  0.85981484    -0.79400
O999        O  0.35953257  0.68679747  0.85636568    -0.92800
Zr1000     Zr  0.24793293  0.81847356  0.85709908     2.64700
O1001       O  0.29578370  0.86217880  0.85872899    -0.97700
O1002       O  0.20119566  0.86485129  0.85505040    -0.79800
O1003       O  0.28585571  0.78138751  0.87545279    -0.83200
O1004       O  0.28601961  0.77972914  0.83969534    -2.17900
O1005       O  0.24219318  0.64349971  0.82723153    -0.66500
O1006       O  0.24356263  0.68620781  0.80486194    -0.51100
C1007       C  0.24161267  0.65343813  0.81028120     0.72200
O1008       O  0.14679775  0.74284155  0.88981739    -0.59500
O1009       O  0.19295279  0.74308708  0.91037035    -0.51400
C1010       C  0.15940914  0.74229935  0.90641517     0.74000
O1011       O  0.14524347  0.74976206  0.82767304    -0.70900
O1012       O  0.18853298  0.74737921  0.80529205    -0.49500
C1013       C  0.15523897  0.74996497  0.81076510     0.75400
O1014       O  0.25002627  0.64425795  0.88954277    -0.66200
O1015       O  0.24716746  0.69005511  0.91039526    -0.53400
C1016       C  0.24960336  0.65667117  0.90616214     0.73800
Zr1017     Zr  0.24525933  0.66879542  0.85817697     2.77500
O1018       O  0.19368538  0.63044276  0.86246528    -0.96900
O1019       O  0.28903845  0.61966937  0.85632017    -0.77800
Zr1020     Zr  0.17123916  0.74635211  0.85816963     2.70100
O1021       O  0.12363533  0.70255050  0.85573250    -0.79000
O1022       O  0.12992016  0.79757969  0.85997152    -0.98100
Zr1023     Zr  0.24671517  0.74447768  0.89251420     2.21500
Zr1024     Zr  0.24750309  0.74291791  0.82146667     2.11100
O1025       O  0.20829948  0.70732586  0.84001670    -2.46800
O1026       O  0.20741105  0.70701085  0.87587324    -0.78800
O1027       O  0.28426690  0.70431094  0.84005926    -0.71000
O1028       O  0.20883733  0.78392793  0.87544958    -2.31900
O1029       O  0.28442831  0.70447135  0.87577927    -2.28200
O1030       O  0.20952296  0.78172407  0.83953438    -0.72700
H1031       H  0.30129959  0.79398038  0.83197202     0.79300
H1032       H  0.19429469  0.79909453  0.88347443     0.80300
H1033       H  0.19282909  0.69321646  0.83231312     0.82600
H1034       H  0.29890260  0.68958932  0.88380654     0.80200
H1035       H  0.18397805  0.85921229  0.86497511     0.43200
H1036       H  0.10567492  0.78720609  0.85861702     0.42200
H1037       H  0.10123811  0.71624858  0.85857627     0.41900
H1038       H  0.17480873  0.64070694  0.85435213     0.39800
H1039       H  0.27452813  0.59780652  0.85759458     0.42900
H1040       H  0.35576606  0.67767682  0.84372761     0.37700
H1041       H  0.36104226  0.80475293  0.86516099     0.43800
H1042       H  0.31297823  0.85480327  0.84898917     0.40200
H1043       H  0.20090860  0.60737485  0.85671880     0.45200
H1044       H  0.34729523  0.66919086  0.86422478     0.43900
H1045       H  0.28457820  0.88470108  0.85418911     0.44000
H1046       H  0.13086082  0.80576558  0.87291091     0.44400
O1047       O  0.34619246  0.73214963  0.17424891    -0.74500
O1048       O  0.30242757  0.73156138  0.19624789    -0.53400
C1049       C  0.33591673  0.73151971  0.19114095     0.79200
O1050       O  0.24398010  0.83522786  0.11178928    -0.59100
O1051       O  0.24500509  0.78912608  0.09124827    -0.52100
C1052       C  0.24455081  0.82256855  0.09516421     0.71200
O1053       O  0.24929741  0.83656449  0.17435731    -0.73700
O1054       O  0.24937824  0.79329792  0.19644038    -0.54200
C1055       C  0.25085789  0.82634304  0.19122123     0.77200
O1056       O  0.34333097  0.72835998  0.11225888    -0.58800
O1057       O  0.29757211  0.73351777  0.09143014    -0.51900
C1058       C  0.33092012  0.72973381  0.09570392     0.73800
Zr1059     Zr  0.31931828  0.73301253  0.14371471     2.54700
O1060       O  0.36356366  0.78042770  0.14294109    -0.79400
O1061       O  0.36470713  0.68555278  0.14181925    -0.92800
Zr1062     Zr  0.24510785  0.81099218  0.14361410     2.64700
O1063       O  0.29460033  0.85263174  0.14312237    -0.97700
O1064       O  0.19944261  0.85845360  0.14513386    -0.79800
O1065       O  0.28208699  0.77197112  0.16165355    -0.83200
O1066       O  0.28330339  0.77289359  0.12607766    -2.17900
O1067       O  0.24845085  0.63649517  0.11189225    -0.66500
O1068       O  0.24736368  0.68262644  0.09153676    -0.51100
C1069       C  0.24920507  0.64931175  0.09539873     0.72200
O1070       O  0.14240256  0.74027394  0.17483941    -0.59500
O1071       O  0.18560436  0.74071854  0.19712006    -0.51400
C1072       C  0.15221069  0.74207641  0.19174148     0.74000
O1073       O  0.14169864  0.73084183  0.11443199    -0.70900
O1074       O  0.18687879  0.73545304  0.09329857    -0.49500
C1075       C  0.15376881  0.73202527  0.09795605     0.75400
O1076       O  0.23693457  0.63531681  0.17441181    -0.66200
O1077       O  0.23859264  0.67883219  0.19653239    -0.53400
C1078       C  0.23625969  0.64584822  0.19128846     0.73800
Zr1079     Zr  0.24256497  0.66014715  0.14363139     2.77500
O1080       O  0.19235878  0.61920547  0.14065572    -0.96900
O1081       O  0.28688862  0.61131346  0.14469641    -0.77800
Zr1082     Zr  0.16872601  0.73822683  0.14440554     2.70100
O1083       O  0.11755189  0.69856367  0.14680919    -0.79000
O1084       O  0.13028528  0.79100416  0.14038656    -0.98100
Zr1085     Zr  0.24386359  0.73572169  0.18016101     2.21500
Zr1086     Zr  0.24347519  0.73595483  0.10946259     2.11100
O1087       O  0.20468548  0.69844079  0.12637654    -2.46800
O1088       O  0.20554032  0.69883239  0.16197776    -0.78800
O1089       O  0.28136798  0.69616089  0.12615341    -0.71000
O1090       O  0.20678207  0.77528535  0.16213891    -2.31900
O1091       O  0.28132652  0.69622850  0.16183858    -2.28200
O1092       O  0.20529281  0.77560687  0.12619095    -0.72700
H1093       H  0.29817696  0.78658856  0.11795334     0.79300
H1094       H  0.19236291  0.79080858  0.16994474     0.80300
H1095       H  0.19023751  0.68400855  0.11831982     0.82600
H1096       H  0.29581159  0.68086761  0.16957199     0.80200
H1097       H  0.17822023  0.84841861  0.13882546     0.43200
H1098       H  0.13570349  0.79968720  0.12786576     0.42200
H1099       H  0.12820601  0.67420484  0.14554288     0.41900
H1100       H  0.17943305  0.62648943  0.12934458     0.39800
H1101       H  0.29211232  0.60742519  0.15787410     0.42900
H1102       H  0.35848504  0.66897244  0.15185337     0.37700
H1103       H  0.38678064  0.76787850  0.14044893     0.43800
H1104       H  0.31120067  0.84328698  0.13353914     0.40200
H1105       H  0.20380379  0.59587959  0.13745979     0.45200
H1106       H  0.38734495  0.69701827  0.14571926     0.43900
H1107       H  0.28398871  0.87491597  0.13799186     0.44000
H1108       H  0.10563497  0.78140779  0.13940960     0.44400
O1109       O  0.10039805  0.51387137  0.67165937    -0.74500
O1110       O  0.05970762  0.51207299  0.69484015    -0.53400
C1111       C  0.09268543  0.51315430  0.68880491     0.79200
O1112       O  0.50011406  0.61506269  0.61310808    -0.59100
O1113       O  0.49493273  0.57016737  0.59201360    -0.52100
C1114       C  0.49792512  0.60323369  0.59640918     0.71200
O1115       O  0.51001565  0.61277912  0.67563644    -0.73700
O1116       O  0.50688891  0.56903093  0.69735904    -0.54200
C1117       C  0.51122316  0.60181551  0.69241007     0.77200
O1118       O  0.09356911  0.50511449  0.61005597    -0.58800
O1119       O  0.04643556  0.51046621  0.59007611    -0.51900
C1120       C  0.08001463  0.50592119  0.59370072     0.73800
Zr1121     Zr  0.07158543  0.51029185  0.64195306     2.54700
O1122       O  0.12181749  0.55118654  0.63978994    -0.79400
O1123       O  0.10827717  0.95772464  0.64268482    -0.92800
Zr1124     Zr  0.49968933  0.59002858  0.64455704     2.64700
O1125       O  0.04029596  0.64014979  0.64480076    -0.97700
O1126       O  0.45215870  0.63561720  0.64641107    -0.79800
O1127       O  0.03669137  0.54998282  0.66073673    -0.83200
O1128       O  0.03532291  0.55165353  0.62547037    -2.17900
O1129       O  0.49991852  0.91657384  0.61203431    -0.66500
O1130       O  0.49734662  0.96281253  0.59175691    -0.51100
C1131       C  0.50013041  0.92953064  0.59560432     0.72200
O1132       O  0.39587472  0.51240173  0.67595308    -0.59500
O1133       O  0.44058982  0.51283066  0.69758074    -0.51400
C1134       C  0.40664444  0.00965695  0.69280371     0.74000
O1135       O  0.39123325  0.52219897  0.61519930    -0.70900
O1136       O  0.43514352  0.51709456  0.59333382    -0.49500
C1137       C  0.40400197  0.01591463  0.59829324     0.75400
O1138       O  0.49151543  0.91272674  0.67414496    -0.66200
O1139       O  0.49557687  0.95497495  0.69671632    -0.53400
C1140       C  0.49260157  0.92219592  0.69116417     0.73800
Zr1141     Zr  0.49415888  0.93942629  0.64368350     2.77500
O1142       O  0.44468492  0.89765233  0.64100463    -0.96900
O1143       O  0.03126427  0.89201406  0.64534687    -0.77800
Zr1144     Zr  0.42022673  0.52162890  0.64553842     2.70100
O1145       O  0.36918799  0.97785673  0.64395636    -0.79000
O1146       O  0.38618081  0.57757102  0.64898838    -0.98100
Zr1147     Zr  0.49868715  0.51344887  0.68022894     2.21500
Zr1148     Zr  0.49241673  0.51585054  0.60930595     2.11100
O1149       O  0.45553211  0.97832873  0.62694075    -2.46800
O1150       O  0.45812607  0.97773158  0.66251533    -0.78800
O1151       O  0.02802304  0.97602722  0.62492104    -0.71000
O1152       O  0.46123367  0.55544505  0.66357774    -2.31900
O1153       O  0.03095076  0.97544234  0.66077534    -2.28200
O1154       O  0.45760414  0.55725265  0.62702155    -0.72700
H1155       H  0.05047132  0.56517143  0.61732313     0.79300
H1156       H  0.44812347  0.57080091  0.67194826     0.80300
H1157       H  0.44037841  0.96438458  0.61892607     0.82600
H1158       H  0.04559726  0.95936271  0.66812411     0.80200
H1159       H  0.46437260  0.65716159  0.65113634     0.43200
H1160       H  0.38098878  0.58534450  0.63625755     0.42200
H1161       H  0.38018500  0.95353639  0.64364057     0.41900
H1162       H  0.43238602  0.90382406  0.62934973     0.39800
H1163       H  0.05524932  0.90309550  0.64433385     0.42900
H1164       H  0.11418315  0.95392434  0.65579820     0.37700
H1165       H  0.11082153  0.57519754  0.64183742     0.43800
H1166       H  0.06175818  0.63142392  0.63795271     0.40200
H1167       H  0.45664132  0.87423934  0.63850506     0.45200
H1168       H  0.13112549  0.96561192  0.63709689     0.43900
H1169       H  0.02920802  0.65881967  0.63689816     0.44000
H1170       H  0.36251534  0.57032113  0.65390539     0.44400
O1171       O  0.48794331  0.61408646  0.32714045    -0.74500
O1172       O  0.48896100  0.57000248  0.30523011    -0.53400
C1173       C  0.48738611  0.60328312  0.31028688     0.79200
O1174       O  0.09453395  0.00075401  0.39028670    -0.59100
O1175       O  0.04936651  0.00945895  0.41110525    -0.52100
C1176       C  0.08087040  0.50553879  0.40566265     0.71200
O1177       O  0.09766935  0.01011946  0.32806577    -0.73700
O1178       O  0.05414332  0.01491028  0.30602380    -0.54200
C1179       C  0.08492540  0.51364837  0.31059854     0.77200
O1180       O  0.49295399  0.61511616  0.38985616    -0.58800
O1181       O  0.49400478  0.56968121  0.41057867    -0.51900
C1182       C  0.49387202  0.60298983  0.40650563     0.73800
Zr1183     Zr  0.49146493  0.58981216  0.35832027     2.54700
O1184       O  0.04061176  0.63419362  0.35718420    -0.79400
O1185       O  0.44382237  0.63513223  0.36070700    -0.92800
Zr1186     Zr  0.07130842  0.00826265  0.35858450     2.64700
O1187       O  0.11081697  0.56151245  0.36088683    -0.97700
O1188       O  0.11282851  0.95731955  0.35618224    -0.79800
O1189       O  0.03093390  0.55127542  0.33998775    -0.83200
O1190       O  0.03197919  0.55243982  0.37581389    -2.17900
O1191       O  0.39195005  0.51445214  0.38964898    -0.66500
O1192       O  0.43779093  0.51398192  0.41052144    -0.51100
C1193       C  0.40479695  0.01544107  0.40590486     0.72200
O1194       O  0.49680120  0.91313896  0.32856160    -0.59500
O1195       O  0.49766970  0.95608137  0.30632803    -0.51400
C1196       C  0.49777579  0.92306902  0.31163284     0.74000
O1197       O  0.50266395  0.91586992  0.39072252    -0.70900
O1198       O  0.49963765  0.96196455  0.41126271    -0.49500
C1199       C  0.50270964  0.92860138  0.40725993     0.75400
O1200       O  0.39047218  0.50743537  0.32919561    -0.66200
O1201       O  0.43359404  0.50616918  0.30684530    -0.53400
C1202       C  0.40256809  0.00570823  0.31186321     0.73800
Zr1203     Zr  0.41811222  0.51400362  0.35898521     2.77500
O1204       O  0.37435310  0.96869194  0.36132566    -0.96900
O1205       O  0.37504012  0.56386905  0.35845187    -0.77800
Zr1206     Zr  0.49654470  0.93972529  0.35927564     2.70100
O1207       O  0.44969497  0.89502931  0.36096598    -0.79000
O1208       O  0.02924732  0.88565670  0.35647006    -0.98100
Zr1209     Zr  0.49484395  0.01381252  0.32256857     2.21500
Zr1210     Zr  0.49415933  0.01586233  0.39355144     2.11100
O1211       O  0.45680379  0.97664089  0.37671751    -2.46800
O1212       O  0.45782434  0.97649662  0.34104956    -0.78800
O1213       O  0.45392720  0.55326407  0.37646561    -0.71000
O1214       O  0.03142106  0.97378370  0.34036476    -2.31900
O1215       O  0.45407243  0.55158555  0.34045983    -2.28200
O1216       O  0.03194937  0.97279644  0.37592951    -0.72700
H1217       H  0.04695955  0.56644359  0.38388607     0.79300
H1218       H  0.04591330  0.95822702  0.33262218     0.80300
H1219       H  0.44264579  0.96211248  0.38480572     0.82600
H1220       H  0.43836259  0.56566668  0.33265288     0.80200
H1221       H  0.13643086  0.96690334  0.35997910     0.43200
H1222       H  0.05267635  0.89328494  0.36153673     0.42200
H1223       H  0.42786361  0.90736460  0.35615708     0.41900
H1224       H  0.38193834  0.95375158  0.37187536     0.39800
H1225       H  0.35256608  0.55349361  0.35359144     0.42900
H1226       H  0.42257195  0.62391756  0.35499405     0.37700
H1227       H  0.02840634  0.65629832  0.35276102     0.43800
H1228       H  0.09761475  0.58278330  0.35615696     0.40200
H1229       H  0.35216563  0.98133095  0.36553526     0.45200
H1230       H  0.45085779  0.65418493  0.35206616     0.43900
H1231       H  0.11313172  0.56602426  0.37424319     0.44000
H1232       H  0.01948599  0.86888425  0.36563177     0.44400
N1233       N  0.00827311  0.76688295  0.52889911    -0.35800
N1234       N  0.00474846  0.71174201  0.50117823    -0.56400
N1235       N  0.00652337  0.76649834  0.47368453    -0.35800
N1236       N  0.01014599  0.82141810  0.50126325    -0.56400
C1237       C  0.99796916  0.73824021  0.53871708     0.27800
C1238       C  0.99881328  0.79632813  0.53871126     0.27800
C1239       C  0.99312949  0.73842601  0.46431828     0.27800
C1240       C  0.99749400  0.79621589  0.46417673     0.27800
C1241       C  0.01335385  0.69151578  0.51590157     0.36400
C1242       C  0.01102145  0.69138659  0.48610898     0.36400
C1243       C  0.01772277  0.84147468  0.51616123     0.36400
C1244       C  0.01869544  0.84095969  0.48640119     0.36400
C1245       C  0.98145669  0.74948964  0.55487106    -0.21100
C1246       C  0.98189579  0.78627147  0.55485083    -0.21100
C1247       C  0.97465219  0.75046997  0.44891987    -0.21100
C1248       C  0.97757667  0.78710553  0.44877905    -0.21100
C1249       C  0.02538865  0.65793010  0.51020455    -0.22200
C1250       C  0.02403032  0.65788695  0.49124093    -0.22200
C1251       C  0.03150982  0.87409251  0.51080006    -0.22200
C1252       C  0.03219250  0.87373772  0.49183284    -0.22200
C1253       C  0.00664279  0.70240116  0.53423546    -0.17500
C1254       C  0.00834657  0.83165866  0.53422386    -0.17500
C1255       C  0.00975097  0.83078148  0.46829294    -0.17500
C1256       C  0.00164129  0.70232843  0.46812248    -0.17500
H1257       H  0.97099744  0.73289071  0.56573104     0.15400
H1258       H  0.97181447  0.80358660  0.56571658     0.15400
H1259       H  0.96167232  0.73439302  0.43851577     0.15400
H1260       H  0.96700882  0.80492163  0.43832294     0.15400
H1261       H  0.03340120  0.63561219  0.51880401     0.13700
H1262       H  0.03086546  0.63554391  0.48231629     0.13700
H1263       H  0.03917641  0.89612881  0.51959791     0.13700
H1264       H  0.04032059  0.89550768  0.48306787     0.13700
H1265       H  0.02518044  0.76612649  0.51747446     0.27000
H1266       H  0.02521601  0.76510773  0.48436218     0.26900
N1267       N  0.24561323  0.99604011  0.52936889    -0.35800
N1268       N  0.30133294  0.00373493  0.50193116    -0.56400
N1269       N  0.24732124  0.99053258  0.47356956    -0.35800
N1270       N  0.19185502  0.98478149  0.50104923    -0.56400
C1271       C  0.27268582  0.00902094  0.53976927     0.27800
C1272       C  0.21489315  0.00028908  0.53919473     0.27800
C1273       C  0.27518855  0.00256152  0.46350581     0.27800
C1274       C  0.21735299  0.99439121  0.46309231     0.27800
C1275       C  0.32250421  0.00293684  0.51705018     0.36400
C1276       C  0.32341436  0.00001350  0.48725841     0.36400
C1277       C  0.17119327  0.97844287  0.51589216     0.36400
C1278       C  0.17204950  0.97618849  0.48616224     0.36400
C1279       C  0.25901992  0.02120045  0.55644584    -0.21100
C1280       C  0.22257496  0.01606201  0.55599949    -0.21100
C1281       C  0.26289545  0.01363512  0.44641063    -0.21100
C1282       C  0.22642587  0.00881552  0.44621987    -0.21100
C1283       C  0.35839274  0.99929464  0.51195957    -0.22200
C1284       C  0.35896799  0.99745435  0.49302625    -0.22200
C1285       C  0.13806032  0.96540874  0.51044587    -0.22200
C1286       C  0.13860306  0.96399626  0.49154581    -0.22200
C1287       C  0.30971961  0.00757913  0.53524030    -0.17500
C1288       C  0.18038107  0.98833487  0.53401550    -0.17500
C1289       C  0.18218769  0.98386001  0.46792459    -0.17500
C1290       C  0.31180625  0.00172250  0.46877755    -0.17500
H1291       H  0.27365934  0.03231286  0.56791985     0.15400
H1292       H  0.20397463  0.02257303  0.56701912     0.15400
H1293       H  0.27851565  0.02407184  0.43514134     0.15400
H1294       H  0.20871269  0.01493864  0.43480622     0.15400
H1295       H  0.38167229  0.99848237  0.52092480     0.13700
H1296       H  0.38277043  0.99499492  0.48448001     0.13700
H1297       H  0.11543953  0.95889988  0.51914191     0.13700
H1298       H  0.11649281  0.95625118  0.48275759     0.13700
H1299       H  0.24858818  0.98119910  0.51735377     0.27000
H1300       H  0.24943987  0.97689977  0.48595040     0.26900
C1301       C  0.49287463  0.79726414  0.26181566     0.87300
C1302       C  0.02496184  0.79203238  0.24924213    -0.53000
C1303       C  0.02575947  0.76075937  0.23970978     0.10200
C1304       C  0.49301105  0.73667006  0.24332778     0.21200
C1305       C  0.46089244  0.79313514  0.24839144    -0.53700
C1306       C  0.45982221  0.76117770  0.23896946     0.10300
C1307       C  0.49027623  0.76296383  0.27373705    -0.53200
C1308       C  0.49068615  0.73105677  0.26422282     0.10900
H1309       H  0.04635987  0.81146564  0.24818187     0.15400
H1310       H  0.49344687  0.71113456  0.23570675     0.01100
H1311       H  0.43945391  0.81266869  0.24713299     0.15700
H1312       H  0.48794421  0.76399425  0.28859442     0.15500
C1313       C  0.49937296  0.89361667  0.29748007    -0.04500
C1314       C  0.47855190  0.89512558  0.28123158    -0.01700
C1315       C  0.47837234  0.86571951  0.26877072     0.03300
C1316       C  0.49617198  0.83263807  0.27326298    -0.04500
C1317       C  0.02147570  0.83501046  0.28752073    -0.01600
C1318       C  0.02273249  0.86542377  0.29908189     0.03300
C1319       C  0.45705973  0.92696546  0.27718615     0.38000
C1320       C  0.04783431  0.80636170  0.29040855     0.38000
C1321       C  0.04969376  0.86668733  0.31352143     0.36400
C1322       C  0.46418125  0.87228249  0.25053324     0.36400
N1323       N  0.07176594  0.86713790  0.32474835    -0.38400
N1324       N  0.45304540  0.87847994  0.23601080    -0.38400
N1325       N  0.06883536  0.78359326  0.29278539    -0.37900
N1326       N  0.43995333  0.95228273  0.27381541    -0.37900
C1327       C  0.48437591  0.63222843  0.29602788    -0.04500
C1328       C  0.00790067  0.63469754  0.28114977    -0.01700
C1329       C  0.00760183  0.66504379  0.26945532     0.03300
C1330       C  0.48618926  0.69506373  0.27356412    -0.04500
C1331       C  0.45907968  0.69091547  0.28708068    -0.01600
C1332       C  0.45792271  0.65967575  0.29798476     0.03300
C1333       C  0.03333445  0.60545889  0.27783682     0.38000
C1334       C  0.43107664  0.71811186  0.28934374     0.38000
C1335       C  0.42854269  0.65531045  0.31089476     0.36400
C1336       C  0.02888852  0.66344916  0.25281545     0.36400
N1337       N  0.40467722  0.65188415  0.32093592    -0.38400
N1338       N  0.04529432  0.66068691  0.23934371    -0.38400
N1339       N  0.40861667  0.73961926  0.29133494    -0.37900
N1340       N  0.05370549  0.58216229  0.27530117    -0.37900
C1341       C  0.99671823  0.62746973  0.42235148    -0.04500
C1342       C  0.47865508  0.62108836  0.43936126    -0.01700
C1343       C  0.48081365  0.64513365  0.45427938     0.03300
C1344       C  0.00055333  0.67587558  0.45256590    -0.04500
C1345       C  0.02197435  0.68092960  0.43669648    -0.01600
C1346       C  0.01898652  0.65776931  0.42142991     0.03300
C1347       C  0.46061371  0.58748166  0.44236461     0.38000
C1348       C  0.04757380  0.70982360  0.43603516     0.38000
C1349       C  0.04138868  0.66368799  0.40541752     0.36400
C1350       C  0.45797303  0.64013497  0.47023964     0.36400
N1351       N  0.05961917  0.66863466  0.39281266    -0.38400
N1352       N  0.43979725  0.63599262  0.48295123    -0.38400
N1353       N  0.06807474  0.73276349  0.43526508    -0.37900
N1354       N  0.44759450  0.56023397  0.44548441    -0.37900
C1355       C  0.50599405  0.90339578  0.42307215    -0.04500
C1356       C  0.02805072  0.87495428  0.42226637    -0.01700
C1357       C  0.03286824  0.85367299  0.43809037     0.03300
C1358       C  0.00917952  0.85760137  0.45318331    -0.04500
C1359       C  0.48536727  0.88381474  0.45341367    -0.01600
C1360       C  0.48363025  0.90819964  0.43875480     0.03300
C1361       C  0.05187847  0.86948502  0.40668393     0.38000
C1362       C  0.45952623  0.88677174  0.46834138     0.38000
C1363       C  0.45966618  0.93900483  0.44048286     0.36400
C1364       C  0.06295482  0.82849315  0.43909386     0.36400
N1365       N  0.44151665  0.96410896  0.44265538    -0.38400
N1366       N  0.08754411  0.80910920  0.43989092    -0.38400
N1367       N  0.43880720  0.88920498  0.48017678    -0.37900
N1368       N  0.07121844  0.86451338  0.39443392    -0.37900
C1369       C  0.10785665  0.99781575  0.42261485    -0.04500
C1370       C  0.10484349  0.52463029  0.43635317    -0.01700
C1371       C  0.12757801  0.51933698  0.45161227     0.03300
C1372       C  0.15383477  0.98611022  0.45330365    -0.04500
C1373       C  0.15438723  0.96193012  0.43832778    -0.01600
C1374       C  0.13140485  0.96763197  0.42309741     0.03300
C1375       C  0.08096230  0.55575384  0.43603083     0.38000
C1376       C  0.17950662  0.93175769  0.43839422     0.38000
C1377       C  0.13184833  0.94212851  0.40802810     0.36400
C1378       C  0.12571536  0.54415179  0.46698854     0.36400
N1379       N  0.13237240  0.92181826  0.39598176    -0.38400
N1380       N  0.12402284  0.56392473  0.47924439    -0.38400
N1381       N  0.19979916  0.90789338  0.43841192    -0.37900
N1382       N  0.06234981  0.58088706  0.43597620    -0.37900
C1383       C  0.37844788  0.01242240  0.42092859    -0.04500
C1384       C  0.36699485  0.04305535  0.43077618    -0.01700
C1385       C  0.34838090  0.03926422  0.44751080     0.03300
C1386       C  0.33859281  0.00492036  0.45363377    -0.04500
C1387       C  0.34777556  0.97442313  0.44296165    -0.01600
C1388       C  0.36772861  0.97819295  0.42664336     0.03300
C1389       C  0.37960427  0.57831689  0.42402579     0.38000
C1390       C  0.33627238  0.93923000  0.44863990     0.38000
C1391       C  0.37747279  0.94687886  0.41571693     0.36400
C1392       C  0.33819872  0.07067843  0.45819152     0.36400
N1393       N  0.38541626  0.92201795  0.40698103    -0.38400
N1394       N  0.33013805  0.09561930  0.46683361    -0.38400
N1395       N  0.32713892  0.91105610  0.45304392    -0.37900
N1396       N  0.38819351  0.60574063  0.41828400    -0.37900
C1397       C  0.10443504  0.50075680  0.57766959    -0.04500
C1398       C  0.10344674  0.52540238  0.56293571    -0.01700
C1399       C  0.12592671  0.52026174  0.54754545     0.03300
C1400       C  0.15158664  0.98994247  0.54832243    -0.04500
C1401       C  0.15152818  0.96483733  0.56273367    -0.01600
C1402       C  0.12758007  0.96937570  0.57767480     0.03300
C1403       C  0.08089427  0.55730200  0.56383472     0.38000
C1404       C  0.17724355  0.93512366  0.56242915     0.38000
C1405       C  0.12802913  0.94320034  0.59232287     0.36400
C1406       C  0.12657931  0.54694262  0.53309351     0.36400
N1407       N  0.12898533  0.92201691  0.60387184    -0.38400
N1408       N  0.12729156  0.56827181  0.52162344    -0.38400
N1409       N  0.19808709  0.91173212  0.56208986    -0.37900
N1410       N  0.06349810  0.58322656  0.56394781    -0.37900
C1411       C  0.37721800  0.01392933  0.58334786    -0.04500
C1412       C  0.36059214  0.54772422  0.57495253    -0.01700
C1413       C  0.34144807  0.54460159  0.55822807     0.03300
C1414       C  0.33578611  0.01007918  0.55084309    -0.04500
C1415       C  0.34803984  0.97839920  0.55952662    -0.01600
C1416       C  0.36833131  0.98031820  0.57586618     0.03300
C1417       C  0.36528220  0.58254981  0.58344023     0.38000
C1418       C  0.33985724  0.94382466  0.55154536     0.38000
C1419       C  0.38022809  0.94772164  0.58500050     0.36400
C1420       C  0.32900646  0.57650828  0.54871547     0.36400
N1421       N  0.38981207  0.92178079  0.59228793    -0.38400
N1422       N  0.31921148  0.60195611  0.54105912    -0.38400
N1423       N  0.33349318  0.91630694  0.54505330    -0.37900
N1424       N  0.36883079  0.61029241  0.59029035    -0.37900
C1425       C  0.49955768  0.62910749  0.58086914    -0.04500
C1426       C  0.47580359  0.62596036  0.56564771    -0.01700
C1427       C  0.47708503  0.65056601  0.55107852     0.03300
C1428       C  0.00672601  0.67555991  0.54943689    -0.04500
C1429       C  0.03146590  0.67839677  0.56413105    -0.01600
C1430       C  0.02913827  0.65538559  0.57943945     0.03300
C1431       C  0.45177548  0.59599321  0.56398269     0.38000
C1432       C  0.05923134  0.70529771  0.56351540     0.38000
C1433       C  0.05580636  0.65792902  0.59392431     0.36400
C1434       C  0.44926152  0.65058757  0.53704251     0.36400
N1435       N  0.07773687  0.66017970  0.60515405    -0.38400
N1436       N  0.42685072  0.65091605  0.52598168    -0.38400
N1437       N  0.08122606  0.72688458  0.56298288    -0.37900
N1438       N  0.43382108  0.57135675  0.56174170    -0.37900
C1439       C  0.50422647  0.90479944  0.57971833    -0.04500
C1440       C  0.02390803  0.87857213  0.57996931    -0.01700
C1441       C  0.02937610  0.85623155  0.56455175     0.03300
C1442       C  0.51195204  0.85833487  0.54922355    -0.04500
C1443       C  0.48548942  0.88571310  0.54902607    -0.01600
C1444       C  0.48331066  0.91032659  0.56360518     0.03300
C1445       C  0.04674412  0.87384337  0.59598735     0.38000
C1446       C  0.45965923  0.88797896  0.53407557     0.38000
C1447       C  0.46045842  0.94187281  0.56136512     0.36400
C1448       C  0.05900280  0.83041148  0.56447896     0.36400
N1449       N  0.44330818  0.96750213  0.55879873    -0.38400
N1450       N  0.08298510  0.81022131  0.56449377    -0.38400
N1451       N  0.43880518  0.88975092  0.52228538    -0.37900
N1452       N  0.06491761  0.86975629  0.60874874    -0.37900
C1453       C  0.12154214  0.74768194  0.20521122    -0.04500
C1454       C  0.11945937  0.72965859  0.22224440    -0.01700
C1455       C  0.08852361  0.73430444  0.23367725     0.03300
C1456       C  0.05741460  0.75301477  0.22724394    -0.04500
C1457       C  0.06019916  0.77218886  0.21065958    -0.01600
C1458       C  0.09240632  0.77088725  0.20027695     0.03300
C1459       C  0.14903137  0.70665141  0.22814537     0.38000
C1460       C  0.03065696  0.79554707  0.20488527     0.38000
C1461       C  0.09674272  0.79637326  0.18549257     0.36400
C1462       C  0.09020208  0.72316725  0.25270496     0.36400
N1463       N  0.10025019  0.81756122  0.17411625    -0.38400
N1464       N  0.09176792  0.71498652  0.26800569    -0.38400
N1465       N  0.50039511  0.80278436  0.19852242    -0.37900
N1466       N  0.17258513  0.68817217  0.23285999    -0.37900
C1467       C  0.36559319  0.73270698  0.20537453    -0.04500
C1468       C  0.36111069  0.75168043  0.22208196    -0.01700
C1469       C  0.39121685  0.75911806  0.23342404     0.03300
C1470       C  0.42710437  0.74983742  0.22775145    -0.04500
C1471       C  0.43099277  0.72885414  0.21153415    -0.01600
C1472       C  0.40037151  0.71844631  0.20130999     0.03300
C1473       C  0.32553010  0.76411078  0.22777690     0.38000
C1474       C  0.46630086  0.71888694  0.20442377     0.38000
C1475       C  0.40480503  0.69079934  0.18740068     0.36400
C1476       C  0.38426957  0.77657159  0.25093930     0.36400
N1477       N  0.40954393  0.66777784  0.17695130    -0.38400
N1478       N  0.37810736  0.79136943  0.26461220    -0.38400
N1479       N  0.49397746  0.71027990  0.19835473    -0.37900
N1480       N  0.29728392  0.77392570  0.23255318    -0.37900
C1481       C  0.26050564  0.58002620  0.04805859    -0.04500
C1482       C  0.23356762  0.60690298  0.04841304    -0.01700
C1483       C  0.23146216  0.63078268  0.06333747     0.03300
C1484       C  0.25258306  0.62461345  0.07935837    -0.04500
C1485       C  0.27896876  0.59681478  0.07910833    -0.01600
C1486       C  0.28441177  0.57627254  0.06302316     0.03300
C1487       C  0.20741616  0.60951287  0.03360069     0.38000
C1488       C  0.30134538  0.58980994  0.09505521     0.38000
C1489       C  0.31522071  0.55198719  0.06153966     0.36400
C1490       C  0.20862305  0.66239791  0.06150051     0.36400
N1491       N  0.34018566  0.53320296  0.06008642    -0.38400
N1492       N  0.19154899  0.68816448  0.05920952    -0.38400
N1493       N  0.31909040  0.58352796  0.10774898    -0.37900
N1494       N  0.18637612  0.61139349  0.02189245    -0.37900
C1495       C  0.24531574  0.84774484  0.07913963    -0.04500
C1496       C  0.22463010  0.84092035  0.06305176    -0.01700
C1497       C  0.22407111  0.86554739  0.04838039     0.03300
C1498       C  0.24842062  0.89414891  0.04817689    -0.04500
C1499       C  0.27253561  0.89816015  0.06304347    -0.01600
C1500       C  0.26951558  0.87666747  0.07886637     0.03300
C1501       C  0.20619148  0.80734263  0.06061196     0.38000
C1502       C  0.30161316  0.92356181  0.06167549     0.38000
C1503       C  0.29410979  0.88255208  0.09399587     0.36400
C1504       C  0.19834807  0.86134351  0.03351610     0.36400
N1505       N  0.31464243  0.88797733  0.10559209    -0.38400
N1506       N  0.17794324  0.85801777  0.02162278    -0.38400
N1507       N  0.32508473  0.94342888  0.06041116    -0.37900
N1508       N  0.19301346  0.77996520  0.05791102    -0.37900
C1509       C  0.25349135  0.63099441  0.92171454    -0.04500
C1510       C  0.22848326  0.63157887  0.93641311    -0.01700
C1511       C  0.23283236  0.60815528  0.95143329     0.03300
C1512       C  0.26267606  0.58437175  0.95218607    -0.04500
C1513       C  0.28842562  0.58454697  0.93788111    -0.01600
C1514       C  0.28367458  0.60742636  0.92261858     0.03300
C1515       C  0.19742449  0.65542136  0.93604351     0.38000
C1516       C  0.31997046  0.56121139  0.93896960     0.38000
C1517       C  0.31046386  0.60731485  0.90810251     0.36400
C1518       C  0.20592795  0.60779381  0.96592148     0.36400
N1519       N  0.33187211  0.60707257  0.89653709    -0.38400
N1520       N  0.18451079  0.60753557  0.97747818    -0.38400
N1521       N  0.34521162  0.54268794  0.93988857    -0.37900
N1522       N  0.17220902  0.67394745  0.93639286    -0.37900
C1523       C  0.24784262  0.90044016  0.95139681    -0.04500
C1524       C  0.27993467  0.89510479  0.94127728    -0.01700
C1525       C  0.27944860  0.87479079  0.92500071     0.03300
C1526       C  0.24683124  0.86009755  0.91888634    -0.04500
C1527       C  0.21447872  0.86692521  0.92848255    -0.01600
C1528       C  0.21524833  0.88576290  0.94519759     0.03300
C1529       C  0.31348932  0.90989688  0.94786868     0.38000
C1530       C  0.18044401  0.85509713  0.92091984     0.38000
C1531       C  0.18278702  0.88970246  0.95617007     0.36400
C1532       C  0.31252185  0.86827975  0.91476533     0.36400
N1533       N  0.15707534  0.89239530  0.96510609    -0.38400
N1534       N  0.33889438  0.86294450  0.90663485    -0.38400
N1535       N  0.15336577  0.84578011  0.91477995    -0.37900
N1536       N  0.34027911  0.92150789  0.95320910    -0.37900
C1537       C  0.51661632  0.63007645  0.70679334    -0.04500
C1538       C  0.49587503  0.63076130  0.72306350    -0.01700
C1539       C  0.49112305  0.66309341  0.73304633     0.03300
C1540       C  0.51109961  0.69375069  0.72832938    -0.04500
C1541       C  0.03103760  0.69297867  0.71314186    -0.01600
C1542       C  0.03397325  0.66109112  0.70274799     0.03300
C1543       C  0.48091559  0.59795210  0.73007106     0.38000
C1544       C  0.05607137  0.72160753  0.70953181     0.38000
C1545       C  0.06283110  0.65678472  0.68941494     0.36400
C1546       C  0.46398637  0.66485610  0.74734439     0.36400
N1547       N  0.08628747  0.65294063  0.67907482    -0.38400
N1548       N  0.44201195  0.66570822  0.75863059    -0.38400
N1549       N  0.07595869  0.74445767  0.70661579    -0.37900
N1550       N  0.47037260  0.57137243  0.73597802    -0.37900
C1551       C  0.49483084  0.83022756  0.72830886    -0.04500
C1552       C  0.00414497  0.86656288  0.73390492    -0.01700
C1553       C  0.00443926  0.89671651  0.72207734     0.03300
C1554       C  0.49059189  0.89239349  0.70503668    -0.04500
C1555       C  0.46902243  0.86216832  0.70151262    -0.01600
C1556       C  0.47173189  0.83124502  0.71263164     0.03300
C1557       C  0.01592713  0.87162510  0.75270971     0.38000
C1558       C  0.44289619  0.86272316  0.68665201     0.38000
C1559       C  0.45018599  0.80065226  0.70751121     0.36400
C1560       C  0.02406831  0.92811747  0.72771741     0.36400
N1561       N  0.43367403  0.77630288  0.70271602    -0.38400
N1562       N  0.03997945  0.95277199  0.73258350    -0.38400
N1563       N  0.42158499  0.86208036  0.67505749    -0.37900
N1564       N  0.02532848  0.87667789  0.76764096    -0.37900
C1565       C  0.06157421  0.75725285  0.77459401    -0.04500
C1566       C  0.08863195  0.73064738  0.77150126    -0.01700
C1567       C  0.12020604  0.72917301  0.78261877     0.03300
C1568       C  0.12492824  0.75394344  0.79713190    -0.04500
C1569       C  0.09761553  0.78032980  0.80022750    -0.01600
C1570       C  0.06596101  0.78126146  0.78943725     0.03300
C1571       C  0.08394359  0.70390890  0.75731665     0.38000
C1572       C  0.10275078  0.80802098  0.81399214     0.38000
C1573       C  0.03668769  0.80569487  0.79438775     0.36400
C1574       C  0.14746750  0.70159920  0.77935649     0.36400
N1575       N  0.01303471  0.82453493  0.79864807    -0.38400
N1576       N  0.16927361  0.67966947  0.77669892    -0.38400
N1577       N  0.10694834  0.83065254  0.82464622    -0.37900
N1578       N  0.08122721  0.68146189  0.74643619    -0.37900
C1579       C  0.37285375  0.74136195  0.79789549    -0.04500
C1580       C  0.40893360  0.73291187  0.80377431    -0.01700
C1581       C  0.43899318  0.73736965  0.79194055     0.03300
C1582       C  0.43417460  0.74823712  0.77356851    -0.04500
C1583       C  0.39815232  0.75316413  0.76715728    -0.01600
C1584       C  0.36815490  0.75134846  0.77927902     0.03300
C1585       C  0.41635689  0.71983026  0.82216916     0.38000
C1586       C  0.39124573  0.75956546  0.74785892     0.38000
C1587       C  0.33273090  0.76191734  0.77256640     0.36400
C1588       C  0.47509686  0.73196819  0.79920783     0.36400
N1589       N  0.30459823  0.77073786  0.76720051    -0.38400
N1590       N  0.50348875  0.72726333  0.80541943    -0.38400
N1591       N  0.38449016  0.76457191  0.73257028    -0.37900
N1592       N  0.42349627  0.70967817  0.83674131    -0.37900
C1593       C  0.31489258  0.49642661  0.72894038    -0.04500
C1594       C  0.34026977  0.52327389  0.73276919    -0.01700
C1595       C  0.36941720  0.52923535  0.72061368     0.03300
C1596       C  0.37715209  0.00379202  0.70654947    -0.04500
C1597       C  0.35347699  0.97481768  0.70384366    -0.01600
C1598       C  0.32103053  0.97264012  0.71394086     0.03300
C1599       C  0.33946605  0.54152483  0.75034815     0.38000
C1600       C  0.36263128  0.94672716  0.69075910     0.38000
C1601       C  0.29614163  0.94400805  0.70992764     0.36400
C1602       C  0.38751812  0.56316891  0.72132502     0.36400
N1603       N  0.27636570  0.92110651  0.70682120    -0.38400
N1604       N  0.40019897  0.59124968  0.72154330    -0.38400
N1605       N  0.36976777  0.92398215  0.68049288    -0.37900
N1606       N  0.33993526  0.55520905  0.76464160    -0.37900
C1607       C  0.18503476  0.50460943  0.72689466    -0.04500
C1608       C  0.14798117  0.00902070  0.73235745    -0.01700
C1609       C  0.11833880  0.01503000  0.72044054     0.03300
C1610       C  0.12482071  0.51267301  0.70203202    -0.04500
C1611       C  0.16123905  0.50842837  0.69549759    -0.01600
C1612       C  0.19073931  0.50570592  0.70784696     0.03300
C1613       C  0.14127138  0.00597173  0.75185497     0.38000
C1614       C  0.16973143  0.50648498  0.67604583     0.38000
C1615       C  0.22721069  0.50357211  0.70070002     0.36400
C1616       C  0.08342490  0.02399308  0.72835397     0.36400
N1617       N  0.25587511  0.50274804  0.69445021    -0.38400
N1618       N  0.05574361  0.03182202  0.73466782    -0.38400
N1619       N  0.17753113  0.50483721  0.66066607    -0.37900
N1620       N  0.13459315  0.00311149  0.76727554    -0.37900
C1621       C  0.23802990  0.62416950  0.79632697    -0.04500
C1622       C  0.21471906  0.59557485  0.79989307    -0.01700
C1623       C  0.21693903  0.56375425  0.78946024     0.03300
C1624       C  0.24043776  0.56083068  0.77399188    -0.04500
C1625       C  0.25800521  0.59266251  0.76832023    -0.01600
C1626       C  0.25884531  0.62307862  0.78008727     0.03300
C1627       C  0.18747817  0.59882132  0.81416692     0.38000
C1628       C  0.27421752  0.59573429  0.75033220     0.38000
C1629       C  0.28268187  0.65239104  0.77588435     0.36400
C1630       C  0.19445461  0.53433681  0.79515304     0.36400
N1631       N  0.30197610  0.67558807  0.77265893    -0.38400
N1632       N  0.17458366  0.01133817  0.80021591    -0.38400
N1633       N  0.28664546  0.59978530  0.73590977    -0.37900
N1634       N  0.16497770  0.60042773  0.82515328    -0.37900
C1635       C  0.24419412  0.92436931  0.77376159    -0.04500
C1636       C  0.21411847  0.90113109  0.77556955    -0.01700
C1637       C  0.21755060  0.86860929  0.78531731     0.03300
C1638       C  0.24883583  0.86076416  0.79550045    -0.04500
C1639       C  0.27763801  0.88478814  0.79515642    -0.01600
C1640       C  0.27544373  0.91627899  0.78456532     0.03300
C1641       C  0.17790466  0.91181767  0.77018941     0.38000
C1642       C  0.30981273  0.87712359  0.80590918     0.38000
C1643       C  0.30505248  0.94120974  0.78580852     0.36400
C1644       C  0.18775288  0.84398155  0.78559488     0.36400
N1645       N  0.32866699  0.96100731  0.78681679    -0.38400
N1646       N  0.16374136  0.82466133  0.78533977    -0.38400
N1647       N  0.33553989  0.87116066  0.81442379    -0.37900
N1648       N  0.14853139  0.91933309  0.76619555    -0.37900
C1649       C  0.09091621  0.72081605  0.04978557    -0.04500
C1650       C  0.09880974  0.69035368  0.06051311    -0.01700
C1651       C  0.11778335  0.69414736  0.07708032     0.03300
C1652       C  0.12810608  0.72848437  0.08294591    -0.04500
C1653       C  0.11861025  0.75901225  0.07272598    -0.01600
C1654       C  0.10206060  0.75498673  0.05556177     0.03300
C1655       C  0.08744864  0.65528684  0.05441966     0.38000
C1656       C  0.12486902  0.79445825  0.08023342     0.38000
C1657       C  0.09636488  0.78586609  0.04384737     0.36400
C1658       C  0.12708469  0.66286356  0.08796564     0.36400
N1659       N  0.09255167  0.81041053  0.03435528    -0.38400
N1660       N  0.13449504  0.63791278  0.09663896    -0.38400
N1661       N  0.12959158  0.82260419  0.08640491    -0.37900
N1662       N  0.07848765  0.62730538  0.04950048    -0.37900
C1663       C  0.40108392  0.71845074  0.04892183    -0.04500
C1664       C  0.38031989  0.75002805  0.05137190    -0.01700
C1665       C  0.35814566  0.75402145  0.06695903     0.03300
C1666       C  0.35652984  0.72649329  0.08017337    -0.04500
C1667       C  0.37745018  0.69493367  0.07772554    -0.01600
C1668       C  0.39921089  0.69070086  0.06196980     0.03300
C1669       C  0.38274844  0.77888980  0.03815175     0.38000
C1670       C  0.37695643  0.66700960  0.09148915     0.38000
C1671       C  0.41993533  0.65788366  0.05911396     0.36400
C1672       C  0.33892046  0.78753502  0.06998859     0.36400
N1673       N  0.43647016  0.63176378  0.05665542    -0.38400
N1674       N  0.32426169  0.81468678  0.07234834    -0.38400
N1675       N  0.37702206  0.64493232  0.10259130    -0.37900
N1676       N  0.38465519  0.80186201  0.02759290    -0.37900
C1677       C  0.08952800  0.73046060  0.95377920    -0.04500
C1678       C  0.08388087  0.71010606  0.93763334    -0.01700
C1679       C  0.10480996  0.71593374  0.92175924     0.03300
C1680       C  0.13416288  0.73968835  0.92238912    -0.04500
C1681       C  0.14173244  0.75750648  0.93928875    -0.01600
C1682       C  0.11804247  0.75484854  0.95433053     0.03300
C1683       C  0.05720613  0.68213755  0.93754285     0.38000
C1684       C  0.17499236  0.77668951  0.94205347     0.38000
C1685       C  0.12285214  0.77769577  0.97031370     0.36400
C1686       C  0.09774589  0.69497878  0.90535765     0.36400
N1687       N  0.12667249  0.79591457  0.98304333    -0.38400
N1688       N  0.09174565  0.67793470  0.89243670    -0.38400
N1689       N  0.20196573  0.79075698  0.94498731    -0.37900
N1690       N  0.03639586  0.65941030  0.93741499    -0.37900
C1691       C  0.40446767  0.72419612  0.95308157    -0.04500
C1692       C  0.40705000  0.70087373  0.93780499    -0.01700
C1693       C  0.38572445  0.70710857  0.92208385     0.03300
C1694       C  0.35930769  0.73485110  0.92213597    -0.04500
C1695       C  0.35497237  0.75641754  0.93811096    -0.01600
C1696       C  0.37879175  0.75239648  0.95303215     0.03300
C1697       C  0.43146402  0.67013357  0.93837996     0.38000
C1698       C  0.32559603  0.78230524  0.93966363     0.38000
C1699       C  0.37757301  0.77808690  0.96806230     0.36400
C1700       C  0.39038747  0.68403920  0.90616146     0.36400
N1701       N  0.37661842  0.79885138  0.97990539    -0.38400
N1702       N  0.39472616  0.66562472  0.89350836    -0.38400
N1703       N  0.30172284  0.80224345  0.94162235    -0.37900
N1704       N  0.45064550  0.64541296  0.93887538    -0.37900
C1705       C  0.30840018  0.49621155  0.27520981    -0.04500
C1706       C  0.34135757  0.01551556  0.26912208    -0.01700
C1707       C  0.37138608  0.01892216  0.28112591     0.03300
C1708       C  0.37229713  0.00072982  0.29816242    -0.04500
C1709       C  0.33949885  0.47910005  0.30363750    -0.01600
C1710       C  0.30859221  0.47860112  0.29228802     0.03300
C1711       C  0.34395247  0.02804678  0.25037219     0.38000
C1712       C  0.34006799  0.45612178  0.31964279     0.38000
C1713       C  0.27745766  0.45796853  0.29771965     0.36400
C1714       C  0.40110061  0.04148668  0.27595587     0.36400
N1715       N  0.25257200  0.44166500  0.30200139    -0.38400
N1716       N  0.42489210  0.05958703  0.27200240    -0.38400
N1717       N  0.33921060  0.43664994  0.33194471    -0.37900
N1718       N  0.34620250  0.03739717  0.23528539    -0.37900
C1719       C  0.11532413  0.51242015  0.29652853    -0.04500
C1720       C  0.11362809  0.99517662  0.27989354    -0.01700
C1721       C  0.14372133  0.99050579  0.26801649     0.03300
C1722       C  0.17741305  0.49878293  0.27319765    -0.04500
C1723       C  0.18080323  0.51691879  0.29025513    -0.01600
C1724       C  0.15006601  0.52527259  0.30117712     0.03300
C1725       C  0.07875987  0.98176631  0.27429428     0.38000
C1726       C  0.21595415  0.52619587  0.29737534     0.38000
C1727       C  0.15447615  0.54894209  0.31685262     0.36400
C1728       C  0.13702678  0.97752896  0.24956008     0.36400
N1729       N  0.15871298  0.56838522  0.32904834    -0.38400
N1730       N  0.13069357  0.96680525  0.23500119    -0.38400
N1731       N  0.24349415  0.53426567  0.30346479    -0.37900
N1732       N  0.05101598  0.97108124  0.26974799    -0.37900
C1733       C  0.23780080  0.55409626  0.22765319    -0.04500
C1734       C  0.25790731  0.58497554  0.23220235    -0.01700
C1735       C  0.25578742  0.61605523  0.22106612     0.03300
C1736       C  0.23323753  0.61694782  0.20542239    -0.04500
C1737       C  0.20946618  0.58828019  0.20249003    -0.01600
C1738       C  0.21180588  0.55713962  0.21340475     0.03300
C1739       C  0.28066701  0.58568138  0.24833575     0.38000
C1740       C  0.18133069  0.59142148  0.18868655     0.38000
C1741       C  0.18645924  0.52863249  0.21014411     0.36400
C1742       C  0.27720669  0.64700551  0.22566726     0.36400
N1743       N  0.16637178  0.50589632  0.20730999    -0.38400
N1744       N  0.29386021  0.67191878  0.22944686    -0.38400
N1745       N  0.15853025  0.59396744  0.17789453    -0.37900
N1746       N  0.29834357  0.58782557  0.26138142    -0.37900
C1747       C  0.25448849  0.85572610  0.20529539    -0.04500
C1748       C  0.27653279  0.88543724  0.20157162    -0.01700
C1749       C  0.27488556  0.91650508  0.21276397     0.03300
C1750       C  0.25145719  0.91843656  0.22824609    -0.04500
C1751       C  0.23642569  0.88541733  0.23412618    -0.01600
C1752       C  0.23583717  0.85524695  0.22220849     0.03300
C1753       C  0.30309442  0.88320467  0.18695324     0.38000
C1754       C  0.22612564  0.88019563  0.25311928     0.38000
C1755       C  0.21617555  0.82368376  0.22757019     0.36400
C1756       C  0.29921643  0.94555293  0.20876886     0.36400
N1757       N  0.20062742  0.79845275  0.23189461    -0.38400
N1758       N  0.31858557  0.96869005  0.20553975    -0.38400
N1759       N  0.21831357  0.87558909  0.26831352    -0.37900
N1760       N  0.32502350  0.88161603  0.17566340    -0.37900
C1761       C  0.74452837  0.45161281  0.23977723     0.87300
C1762       C  0.77634219  0.45607452  0.25268354    -0.53000
C1763       C  0.77905327  0.98877641  0.26275631     0.10200
C1764       C  0.74492138  0.01270469  0.25872703     0.21200
C1765       C  0.71069487  0.45687962  0.25195636    -0.53700
C1766       C  0.71170794  0.98872052  0.26241660     0.10300
C1767       C  0.74393306  0.48602328  0.22795045    -0.53200
C1768       C  0.74437124  0.01781623  0.23760594     0.10900
H1769       H  0.79785983  0.43610662  0.25388067     0.15400
H1770       H  0.74377443  0.03818221  0.26641670     0.01100
H1771       H  0.68862497  0.43846565  0.25208111     0.15700
H1772       H  0.74568274  0.98391705  0.21353038     0.15500
N1773       N  0.99858100  0.22644103  0.97351671    -0.35800
N1774       N  0.94363364  0.21772757  0.00085346    -0.56400
N1775       N  0.99757373  0.22375846  0.02867686    -0.35800
N1776       N  0.55488808  0.22006666  0.00133927    -0.56400
C1777       C  0.96834234  0.23450415  0.96406070     0.27800
C1778       C  0.52786198  0.23590754  0.96497388     0.27800
C1779       C  0.96733672  0.22878183  0.03878062     0.27800
C1780       C  0.52864262  0.22263542  0.03932150     0.27800
C1781       C  0.92418893  0.21011027  0.98576968     0.36400
C1782       C  0.92317161  0.20942121  0.01545221     0.36400
C1783       C  0.57551899  0.21603383  0.98621176     0.36400
C1784       C  0.57590825  0.21181248  0.01582773     0.36400
C1785       C  0.97662748  0.25498978  0.94881282    -0.21100
C1786       C  0.51600946  0.25587031  0.95007454    -0.21100
C1787       C  0.97602460  0.24381155  0.05563421    -0.21100
C1788       C  0.51741170  0.23590695  0.05625876    -0.21100
C1789       C  0.89117457  0.19621800  0.99074172    -0.22200
C1790       C  0.89043221  0.19602390  0.00967847    -0.22200
C1791       C  0.60997725  0.20463861  0.99105038    -0.22200
C1792       C  0.61031374  0.20228700  0.00996967    -0.22200
C1793       C  0.93406503  0.22104269  0.96801198    -0.17500
C1794       C  0.56405482  0.22674267  0.96857759    -0.17500
C1795       C  0.56498879  0.21710157  0.03414698    -0.21500
C1796       C  0.93243700  0.21808519  0.03366191    -0.17500
H1797       H  0.95827952  0.26511687  0.93843039     0.15400
H1798       H  0.53235311  0.26926543  0.93997058     0.15400
H1799       H  0.95795749  0.25047033  0.06685943     0.15400
H1800       H  0.53405175  0.24481308  0.06754561     0.15400
H1801       H  0.86929733  0.18886002  0.98171461     0.13700
H1802       H  0.86799959  0.18820266  0.01819619     0.13700
H1803       H  0.63272431  0.19993165  0.98199332     0.13700
H1804       H  0.63331446  0.19527044  0.01845216     0.13700
H1805       H  0.00093052  0.20772227  0.98404580     0.27000
H1806       H  0.99988043  0.20899468  0.01657772     0.26900
C1807       C  0.74892662  0.45666070  0.76265056     0.87300
C1808       C  0.71750265  0.46068704  0.74871863    -0.53000
C1809       C  0.71541449  0.99150505  0.73949733     0.10200
C1810       C  0.74915888  0.01404833  0.74357302     0.21200
C1811       C  0.78206622  0.46094250  0.75042846    -0.53700
C1812       C  0.78220110  0.98798374  0.74068298     0.10300
C1813       C  0.74774277  0.49110456  0.77427431    -0.53200
C1814       C  0.74707520  0.02077422  0.76459719     0.10900
H1815       H  0.69874334  0.43989776  0.74523572     0.15400
H1816       H  0.74966290  0.03828422  0.73496272     0.01100
H1817       H  0.80327377  0.44066031  0.74935320     0.15700
H1818       H  0.74792446  0.98824798  0.78914955     0.15500
C1819       C  0.49887583  0.29622066  0.73986569     0.87300
C1820       C  0.96387840  0.29142343  0.75202305    -0.53000
C1821       C  0.96517414  0.26026644  0.76179261     0.10200
C1822       C  0.50100459  0.23687241  0.75922130     0.21200
C1823       C  0.53224744  0.29208831  0.75233352    -0.53700
C1824       C  0.53319634  0.26181939  0.76277976     0.10300
C1825       C  0.50126092  0.26139520  0.72838075    -0.53200
C1826       C  0.50252697  0.23017030  0.73822336     0.10900
H1827       H  0.94112077  0.31004727  0.75276154     0.15400
H1828       H  0.50264838  0.21214901  0.76752979     0.01100
H1829       H  0.55503367  0.30981958  0.75219429     0.15700
H1830       H  0.50350108  0.26147783  0.71353404     0.15500
N1831       N  0.75855325  0.98900939  0.02837908    -0.35800
N1832       N  0.75573981  0.43353733  0.99967192    -0.56400
N1833       N  0.76121627  0.98803141  0.97282047    -0.35800
N1834       N  0.76556647  0.04308694  0.99974975    -0.56400
C1835       C  0.74317357  0.45861971  0.03676515     0.27800
C1836       C  0.75028380  0.01960282  0.03746795     0.27800
C1837       C  0.75976726  0.46300356  0.96200493     0.27800
C1838       C  0.75569486  0.01735535  0.96223958     0.27800
C1839       C  0.75953049  0.41179481  0.01436716     0.36400
C1840       C  0.76412105  0.41368783  0.98472410     0.36400
C1841       C  0.77228794  0.06341434  0.01463582     0.36400
C1842       C  0.77402762  0.06281477  0.98492045     0.36400
C1843       C  0.72496358  0.47056009  0.05230402    -0.21100
C1844       C  0.73209517  0.01171569  0.05359387    -0.21100
C1845       C  0.74991010  0.47623787  0.94491310    -0.21100
C1846       C  0.73993948  0.00749807  0.94575157    -0.21100
C1847       C  0.77053133  0.37785237  0.00871169    -0.22200
C1848       C  0.77276073  0.37888796  0.98981993    -0.22200
C1849       C  0.78549862  0.09632322  0.00929388    -0.22200
C1850       C  0.78647954  0.09597561  0.99037438    -0.22200
C1851       C  0.75068216  0.42238432  0.03251680    -0.17500
C1852       C  0.76221035  0.05401602  0.03264751    -0.17500
C1853       C  0.76607818  0.05253507  0.96671872    -0.17500
C1854       C  0.76141931  0.42632559  0.96656135    -0.17500
H1855       H  0.71135907  0.45444198  0.06241177     0.15400
H1856       H  0.72239968  0.03036847  0.06396193     0.15400
H1857       H  0.74078383  0.46133695  0.93306659     0.15400
H1858       H  0.73247543  0.02464003  0.93437385     0.15400
H1859       H  0.77571948  0.35465232  0.01722157     0.13700
H1860       H  0.78005928  0.35670152  0.98087991     0.13700
H1861       H  0.79221170  0.11872419  0.01806026     0.13700
H1862       H  0.79412687  0.11797691  0.98164153     0.13700
H1863       H  0.77589317  0.98669748  0.01717215     0.27000
H1864       H  0.77634262  0.98654329  0.98483521     0.26900
O1865       O  0.84872259  0.23613776  0.89008335    -0.74500
O1866       O  0.80264953  0.23720057  0.91075219    -0.53400
C1867       C  0.83613694  0.23581575  0.90663604     0.79200
O1868       O  0.75419508  0.33975707  0.82678760    -0.59100
O1869       O  0.75302908  0.29564342  0.80491424    -0.52100
C1870       C  0.75456291  0.32875185  0.81003633     0.71200
O1871       O  0.75406795  0.34225152  0.88790775    -0.73700
O1872       O  0.75173511  0.29787039  0.90935116    -0.54200
C1873       C  0.75365928  0.33083600  0.90451407     0.77200
O1874       O  0.85146398  0.23970552  0.82851736    -0.58800
O1875       O  0.80891765  0.23550844  0.80619433    -0.51900
C1876       C  0.84226480  0.23745486  0.81157735     0.73800
Zr1877     Zr  0.82438846  0.23601969  0.85860671     2.54700
O1878       O  0.87678036  0.27435551  0.85986251    -0.79400
O1879       O  0.86067609  0.18113743  0.85726085    -0.92800
Zr1880     Zr  0.75189358  0.31502317  0.85756250     2.64700
O1881       O  0.80265990  0.35559051  0.85731612    -0.97700
O1882       O  0.70696774  0.36330027  0.85697060    -0.79800
O1883       O  0.78897442  0.27721210  0.87588954    -0.83200
O1884       O  0.78861908  0.27521106  0.84015053    -2.17900
O1885       O  0.74268881  0.13994546  0.82740206    -0.66500
O1886       O  0.74567263  0.18258983  0.80508291    -0.51100
C1887       C  0.74301487  0.14981972  0.81044367     0.72200
O1888       O  0.64933272  0.24153593  0.89021194    -0.59500
O1889       O  0.69506675  0.24212920  0.91102016    -0.51400
C1890       C  0.66161950  0.24141091  0.90680540     0.74000
O1891       O  0.64714470  0.24696089  0.82870886    -0.70900
O1892       O  0.69014316  0.24447871  0.80619117    -0.49500
C1893       C  0.65699483  0.24719674  0.81183479     0.75400
O1894       O  0.74950689  0.14156610  0.88997029    -0.66200
O1895       O  0.74896121  0.18724375  0.91092045    -0.53400
C1896       C  0.75014035  0.15387322  0.90659186     0.73800
Zr1897     Zr  0.74659703  0.16508048  0.85843137     2.77500
O1898       O  0.69926538  0.12125913  0.86175624    -0.96900
O1899       O  0.79247343  0.11793080  0.85612509    -0.77800
Zr1900     Zr  0.67378500  0.24361846  0.85878460     2.70100
O1901       O  0.62779335  0.19796273  0.85753547    -0.79000
O1902       O  0.62900402  0.29200141  0.85975962    -0.98100
Zr1903     Zr  0.74885711  0.24142311  0.89299345     2.21500
Zr1904     Zr  0.74932368  0.23925385  0.82196305     2.11100
O1905       O  0.70969424  0.20395119  0.84045563    -2.46800
O1906       O  0.70937289  0.20379859  0.87638640    -0.78800
O1907       O  0.78597428  0.19998427  0.84030599    -0.71000
O1908       O  0.71174557  0.28136418  0.87584660    -2.31900
O1909       O  0.78590409  0.20045619  0.87622191    -2.28200
O1910       O  0.71235099  0.27889273  0.84014035    -0.72700
H1911       H  0.80413300  0.28913935  0.83238834     0.79300
H1912       H  0.69747077  0.29691338  0.88381380     0.80300
H1913       H  0.69396197  0.19002755  0.83279128     0.82600
H1914       H  0.80018115  0.18548860  0.88430323     0.80200
H1915       H  0.69270352  0.36025665  0.86833987     0.43200
H1916       H  0.61772190  0.29092909  0.87205638     0.42200
H1917       H  0.60548137  0.21047263  0.86168372     0.41900
H1918       H  0.67787195  0.13251574  0.85589844     0.39800
H1919       H  0.80520479  0.12262888  0.84444498     0.42900
H1920       H  0.85640865  0.17138792  0.84479499     0.37700
H1921       H  0.89771431  0.25758167  0.85943718     0.43800
H1922       H  0.81888380  0.34652991  0.86710867     0.40200
H1923       H  0.70644124  0.10130685  0.85346678     0.45200
H1924       H  0.84853237  0.16417976  0.86552918     0.43900
H1925       H  0.81575661  0.35003747  0.84578044     0.44000
H1926       H  0.64336245  0.31409525  0.86005571     0.44400
O1927       O  0.84885048  0.23454623  0.17261633    -0.74500
O1928       O  0.80622039  0.23218190  0.19502425    -0.53400
C1929       C  0.83952472  0.23352928  0.18958211     0.79200
O1930       O  0.74823236  0.33684791  0.11190178    -0.59100
O1931       O  0.74790257  0.29109446  0.09126239    -0.52100
C1932       C  0.74814201  0.32445556  0.09523030     0.71200
O1933       O  0.75064983  0.33572521  0.17443846    -0.73700
O1934       O  0.75025962  0.29192736  0.19628991    -0.54200
C1935       C  0.75124091  0.32503387  0.19123024     0.77200
O1936       O  0.84540036  0.23049126  0.11094911    -0.58800
O1937       O  0.79921939  0.23498410  0.09035380    -0.51900
C1938       C  0.83269926  0.23171926  0.09444445     0.73800
Zr1939     Zr  0.82154456  0.23161060  0.14250055     2.54700
O1940       O  0.87441877  0.26938079  0.14229312    -0.79400
O1941       O  0.85655596  0.17608518  0.14039089    -0.92800
Zr1942     Zr  0.74866907  0.31123223  0.14342105     2.64700
O1943       O  0.79959672  0.35124954  0.14479450    -0.97700
O1944       O  0.70380617  0.35951867  0.14466981    -0.79800
O1945       O  0.78517110  0.27085881  0.16084526    -0.83200
O1946       O  0.78626258  0.27318705  0.12551802    -2.17900
O1947       O  0.75075104  0.13789828  0.11099394    -0.66500
O1948       O  0.74865808  0.18430403  0.09075999    -0.51100
C1949       C  0.75105075  0.15100808  0.09456091     0.72200
O1950       O  0.64466532  0.24236134  0.17387752    -0.59500
O1951       O  0.68799996  0.24071564  0.19610306    -0.51400
C1952       C  0.65461930  0.24334484  0.19074980     0.74000
O1953       O  0.64428292  0.23465182  0.11327913    -0.70900
O1954       O  0.68949330  0.23817830  0.09214926    -0.49500
C1955       C  0.65627123  0.23554064  0.09675776     0.75400
O1956       O  0.74172098  0.13485347  0.17355994    -0.66200
O1957       O  0.74223909  0.17793054  0.19591994    -0.53400
C1958       C  0.74081541  0.14493955  0.19051101     0.73800
Zr1959     Zr  0.74412435  0.16054346  0.14281065     2.77500
O1960       O  0.69270700  0.12101048  0.14059820    -0.96900
O1961       O  0.78631593  0.11006652  0.14444071    -0.77800
Zr1962     Zr  0.67114473  0.23912130  0.14362630     2.70100
O1963       O  0.62214285  0.19673112  0.14602519    -0.79000
O1964       O  0.63054544  0.29057038  0.14090351    -0.98100
Zr1965     Zr  0.74667367  0.23508917  0.17949612     2.21500
Zr1966     Zr  0.74559522  0.23731210  0.10879791     2.11100
O1967       O  0.70667846  0.19945160  0.12548773    -2.46800
O1968       O  0.70747116  0.19918394  0.16128582    -0.78800
O1969       O  0.78282162  0.19607058  0.12494386    -0.71000
O1970       O  0.71002172  0.27517077  0.16152105    -2.31900
O1971       O  0.78359252  0.19565630  0.16100041    -2.28200
O1972       O  0.70803236  0.27693923  0.12583882    -0.72700
H1973       H  0.80130210  0.28700373  0.11752159     0.79300
H1974       H  0.69569395  0.29068385  0.16937244     0.80300
H1975       H  0.69203317  0.18538808  0.11731947     0.82600
H1976       H  0.79809424  0.18018535  0.16867581     0.80200
H1977       H  0.69119779  0.35844896  0.13269732     0.43200
H1978       H  0.63689851  0.30182662  0.12907312     0.42200
H1979       H  0.62292323  0.18271341  0.13446147     0.41900
H1980       H  0.67278944  0.13591133  0.13555390     0.39800
H1981       H  0.77095463  0.08868791  0.14353271     0.42900
H1982       H  0.85807543  0.16696632  0.15310739     0.37700
H1983       H  0.89514164  0.25237617  0.14158332     0.43800
H1984       H  0.81395271  0.34560342  0.13367065     0.40200
H1985       H  0.69893271  0.10394871  0.13061195     0.45200
H1986       H  0.88128983  0.18365404  0.13734325     0.43900
H1987       H  0.78900832  0.37533432  0.14256627     0.44000
H1988       H  0.60656120  0.28008520  0.13873173     0.44400
O1989       O  0.59983472  0.01591936  0.67218721    -0.74500
O1990       O  0.55927701  0.00961500  0.69520658    -0.53400
C1991       C  0.59216386  0.01253561  0.68920522     0.79200
O1992       O  0.00143802  0.11694718  0.61268669    -0.59100
O1993       O  0.99646046  0.07183725  0.59172889    -0.52100
C1994       C  0.99998425  0.10487395  0.59596483     0.71200
O1995       O  0.00809645  0.11454022  0.67583817    -0.73700
O1996       O  0.00352421  0.07109017  0.69765009    -0.54200
C1997       C  0.00836352  0.10382341  0.69269970     0.77200
O1998       O  0.59451015  0.00497169  0.61143878    -0.58800
O1999       O  0.54799305  0.01159347  0.59122908    -0.51900
C2000       C  0.58152457  0.00644916  0.59501779     0.73800
Zr2001     Zr  0.57078281  0.01181909  0.64278012     2.54700
O2002       O  0.61649515  0.05740149  0.63964194    -0.79400
O2003       O  0.61211278  0.45830412  0.64421566    -0.92800
Zr2004     Zr  0.99844055  0.09227951  0.64442305     2.64700
O2005       O  0.53444038  0.14187657  0.64704740    -0.97700
O2006       O  0.94935763  0.13627979  0.64579703    -0.79800
O2007       O  0.53466798  0.04987030  0.66177642    -0.83200
O2008       O  0.53389835  0.05288355  0.62649516    -2.17900
O2009       O  0.99846309  0.41666446  0.61179959    -0.66500
O2010       O  0.99551808  0.46227623  0.59118062    -0.51100
C2011       C  0.99838598  0.42908687  0.59526871     0.72200
O2012       O  0.89482065  0.01346855  0.67572568    -0.59500
O2013       O  0.93918614  0.01376346  0.69748724    -0.51400
C2014       C  0.90721511  0.51506219  0.69231171     0.74000
O2015       O  0.89052642  0.02179931  0.61520612    -0.70900
O2016       O  0.93463040  0.02119759  0.59332351    -0.49500
C2017       C  0.90327828  0.51832202  0.59793386     0.75400
O2018       O  0.99050562  0.41441837  0.67390699    -0.66200
O2019       O  0.99531864  0.45705750  0.69624011    -0.53400
C2020       C  0.99169071  0.42426953  0.69085189     0.73800
Zr2021     Zr  0.99324193  0.44017290  0.64331312     2.77500
O2022       O  0.94338378  0.39890557  0.64076363    -0.96900
O2023       O  0.52883907  0.38647669  0.64581444    -0.77800
Zr2024     Zr  0.91889480  0.02399604  0.64543769     2.70100
O2025       O  0.87173621  0.47772615  0.64602421    -0.79000
O2026       O  0.88462879  0.07995057  0.64802903    -0.98100
Zr2027     Zr  0.99689330  0.01556806  0.68010662     2.21500
Zr2028     Zr  0.99143395  0.01822569  0.60921224     2.11100
O2029       O  0.95484274  0.47926099  0.62650411    -2.46800
O2030       O  0.95827476  0.47965465  0.66205582    -0.78800
O2031       O  0.52999364  0.47437938  0.62519210    -0.71000
O2032       O  0.95976967  0.05782422  0.66345408    -2.31900
O2033       O  0.53323342  0.47376686  0.66082547    -2.28200
O2034       O  0.95630592  0.05965422  0.62684884    -0.72700
H2035       H  0.54869358  0.06702407  0.61845433     0.79300
H2036       H  0.94659566  0.07316099  0.67180751     0.80300
H2037       H  0.93925943  0.46544993  0.61863185     0.82600
H2038       H  0.54806905  0.45781239  0.66815059     0.80200
H2039       H  0.95884718  0.15594869  0.65346843     0.43200
H2040       H  0.86334817  0.07647431  0.64003838     0.42200
H2041       H  0.88290151  0.45455880  0.64229192     0.41900
H2042       H  0.93374424  0.40229160  0.62820186     0.39800
H2043       H  0.55070933  0.39425409  0.65241359     0.42900
H2044       H  0.63060583  0.46241923  0.63468568     0.37700
H2045       H  0.60502047  0.07938370  0.64477044     0.43800
H2046       H  0.55671706  0.13445680  0.64049951     0.40200
H2047       H  0.95519207  0.37493801  0.64040394     0.45200
H2048       H  0.59818024  0.43782927  0.63952137     0.43900
H2049       H  0.52275409  0.16010748  0.63910404     0.44000
H2050       H  0.87477273  0.07987903  0.66066866     0.44400
O2051       O  0.99414217  0.11427929  0.32714950    -0.74500
O2052       O  0.99306031  0.07064139  0.30508072    -0.53400
C2053       C  0.99229048  0.10376967  0.31029131     0.79200
O2054       O  0.59250606  0.50811337  0.39001105    -0.59100
O2055       O  0.54740469  0.51331747  0.41112154    -0.52100
C2056       C  0.58181533  0.01187310  0.40728362     0.71200
O2057       O  0.59400574  0.51234191  0.32788281    -0.73700
O2058       O  0.55081205  0.51499435  0.30572772    -0.54200
C2059       C  0.58734599  0.01374520  0.31188882     0.77200
O2060       O  0.00089058  0.11380910  0.38948120    -0.58800
O2061       O  0.00098511  0.06834003  0.41017240    -0.51900
C2062       C  0.00161686  0.10156571  0.40606368     0.73800
Zr2063     Zr  0.00037266  0.08921003  0.35800712     2.54700
O2064       O  0.54761471  0.12717742  0.35688998    -0.79400
O2065       O  0.96311158  0.14313150  0.36134778    -0.92800
Zr2066     Zr  0.56855267  0.51529777  0.35864054     2.64700
O2067       O  0.61275226  0.06410661  0.36131425    -0.97700
O2068       O  0.62265733  0.47764113  0.35731420    -0.79800
O2069       O  0.53242901  0.05223752  0.34054686    -0.83200
O2070       O  0.53247724  0.05389259  0.37662338    -2.17900
O2071       O  0.89498961  0.02424099  0.38929278    -0.66500
O2072       O  0.94059350  0.01774083  0.41008016    -0.51100
C2073       C  0.90386692  0.52182405  0.40527728     0.72200
O2074       O  0.99443623  0.41276829  0.32797969    -0.59500
O2075       O  0.99599348  0.45591181  0.30580288    -0.51400
C2076       C  0.99625547  0.42288696  0.31111339     0.74000
O2077       O  0.99769984  0.41663554  0.39039483    -0.70900
O2078       O  0.99361625  0.46248236  0.41102901    -0.49500
C2079       C  0.99701745  0.42927296  0.40697275     0.75400
O2080       O  0.89305759  0.01291941  0.32854085    -0.66200
O2081       O  0.93611756  0.01026422  0.30612148    -0.53400
C2082       C  0.90077943  0.50597027  0.31109247     0.73800
Zr2083     Zr  0.92043327  0.02010406  0.35843507     2.77500
O2084       O  0.86708894  0.47620576  0.36073133    -0.96900
O2085       O  0.88348455  0.07434268  0.35595645    -0.77800
Zr2086     Zr  0.99162819  0.43939358  0.35860132     2.70100
O2087       O  0.94024806  0.39967090  0.35990125    -0.79000
O2088       O  0.53799749  0.38920592  0.35760589    -0.98100
Zr2089     Zr  0.99268412  0.51385560  0.32185384     2.21500
Zr2090     Zr  0.99272320  0.51516194  0.39263661     2.11100
O2091       O  0.95317642  0.47750749  0.37603068    -2.46800
O2092       O  0.95440139  0.47749053  0.34028731    -0.78800
O2093       O  0.95965094  0.05585870  0.37600930    -0.71000
O2094       O  0.53193883  0.47636737  0.34095032    -2.31900
O2095       O  0.95944129  0.05481241  0.34017287    -2.28200
O2096       O  0.53282519  0.47652797  0.37633451    -0.72700
H2097       H  0.54693824  0.06842287  0.38470397     0.79300
H2098       H  0.54736859  0.46152054  0.33331151     0.80300
H2099       H  0.93838970  0.46369874  0.38417896     0.82600
H2100       H  0.94458307  0.06998689  0.33248136     0.80200
H2101       H  0.64273565  0.49445638  0.35916545     0.43200
H2102       H  0.55987757  0.39848239  0.36364031     0.42200
H2103       H  0.94196289  0.38805964  0.37208109     0.41900
H2104       H  0.87242679  0.46163630  0.37174737     0.39800
H2105       H  0.86080304  0.06865595  0.36240433     0.42900
H2106       H  0.93897088  0.13602400  0.35701618     0.37700
H2107       H  0.54118533  0.14669629  0.34828112     0.43800
H2108       H  0.60357453  0.08210957  0.35246825     0.40200
H2109       H  0.84616788  0.49154387  0.36426578     0.45200
H2110       H  0.97191448  0.15998531  0.35195864     0.43900
H2111       H  0.60854885  0.07519056  0.37352213     0.44000
H2112       H  0.52862984  0.37094037  0.36609878     0.44400
N2113       N  0.51302146  0.26427647  0.52953241    -0.35800
N2114       N  0.50986462  0.21017684  0.50180701    -0.56400
N2115       N  0.51354743  0.26592838  0.47429688    -0.35800
N2116       N  0.51697484  0.31970048  0.50208762    -0.56400
C2117       C  0.50101107  0.23593355  0.53904841     0.27800
C2118       C  0.50346471  0.29377179  0.53920588     0.27800
C2119       C  0.50081988  0.23788444  0.46463727     0.27800
C2120       C  0.50514697  0.29583379  0.46468545     0.27800
C2121       C  0.51656340  0.18918051  0.51649697     0.36400
C2122       C  0.51623790  0.19001686  0.48673162     0.36400
C2123       C  0.52392791  0.33928609  0.51720015     0.36400
C2124       C  0.52469486  0.34031830  0.48749734     0.36400
C2125       C  0.48326527  0.24747559  0.55480142    -0.21100
C2126       C  0.48480923  0.28414726  0.55490361    -0.21100
C2127       C  0.48381421  0.25010070  0.44883518    -0.21100
C2128       C  0.48665345  0.28673496  0.44883938    -0.21100
C2129       C  0.52753545  0.15529071  0.51079310    -0.22200
C2130       C  0.52743955  0.15584344  0.49182449    -0.22200
C2131       C  0.53655098  0.37263739  0.51226782    -0.22200
C2132       C  0.53709880  0.37327330  0.49333040    -0.22200
C2133       C  0.50903855  0.19998724  0.53471568    -0.17500
C2134       C  0.51422534  0.32874744  0.53505669    -0.17500
C2135       C  0.51600457  0.33079524  0.46928760    -0.17500
C2136       C  0.50788438  0.20151713  0.46873727    -0.17500
H2137       H  0.47122316  0.23111998  0.56532075     0.15400
H2138       H  0.47416722  0.30168555  0.56553820     0.15400
H2139       H  0.47146098  0.23416821  0.43817350     0.15400
H2140       H  0.47670391  0.30459261  0.43825090     0.15400
H2141       H  0.53388766  0.13243183  0.51936233     0.13700
H2142       H  0.53368948  0.13342662  0.48283995     0.13700
H2143       H  0.54321367  0.39460744  0.52133110     0.13700
H2144       H  0.54425637  0.39582094  0.48486127     0.13700
H2145       H  0.53095666  0.26331551  0.51851542     0.27000
H2146       H  0.53107589  0.26428660  0.48545585     0.26900
N2147       N  0.74456228  0.50325903  0.52857606    -0.35800
N2148       N  0.80011469  0.51901944  0.50171609    -0.56400
N2149       N  0.74677394  0.50874170  0.47315714    -0.35800
N2150       N  0.69175993  0.49463103  0.49995064    -0.56400
C2151       C  0.77109435  0.51579840  0.53944232     0.27800
C2152       C  0.71370361  0.50524245  0.53847472     0.27800
C2153       C  0.77378930  0.52441460  0.46389538     0.27800
C2154       C  0.71654686  0.51323300  0.46299369     0.27800
C2155       C  0.82114251  0.51516200  0.51674962     0.36400
C2156       C  0.82228865  0.51772258  0.48698444     0.36400
C2157       C  0.67134308  0.48484606  0.51434743     0.36400
C2158       C  0.67301780  0.48669338  0.48464383     0.36400
C2159       C  0.75709331  0.52538332  0.55645721    -0.21100
C2160       C  0.72085870  0.51904445  0.55579385    -0.21100
C2161       C  0.76067514  0.53912560  0.44772397    -0.21100
C2162       C  0.72441821  0.53234410  0.44722642    -0.21100
C2163       C  0.85706708  0.51234576  0.51160062    -0.22200
C2164       C  0.85778223  0.51383233  0.49265497    -0.22200
C2165       C  0.63942004  0.47021143  0.50820215    -0.22200
C2166       C  0.64056005  0.47120565  0.48929533    -0.22200
C2167       C  0.80809783  0.51598918  0.53500283    -0.17500
C2168       C  0.67957907  0.49305938  0.53278609    -0.17500
C2169       C  0.68269295  0.49825470  0.46691620    -0.17500
C2170       C  0.81054344  0.52202999  0.46865683    -0.17500
H2171       H  0.77149937  0.53562155  0.56823466     0.15400
H2172       H  0.70206158  0.52353472  0.56697072     0.15400
H2173       H  0.77578455  0.55278668  0.43722327     0.15400
H2174       H  0.70612847  0.53987008  0.43626639     0.15400
H2175       H  0.88024379  0.50963360  0.52055215     0.13700
H2176       H  0.88160248  0.51262683  0.48406853     0.13700
H2177       H  0.61719045  0.46100248  0.51647341     0.13700
H2178       H  0.61926034  0.46312859  0.48007480     0.13700
H2179       H  0.74824389  0.49021336  0.51606158     0.27000
H2180       H  0.74991525  0.49173996  0.48434995     0.26900
C2181       C  0.99561574  0.29715964  0.26151331     0.87300
C2182       C  0.52882294  0.29108262  0.24920817    -0.53000
C2183       C  0.52970404  0.26005036  0.23947370     0.10200
C2184       C  0.99665725  0.23649906  0.24306746     0.21200
C2185       C  0.96313741  0.29202462  0.24849863    -0.53700
C2186       C  0.96284638  0.26034102  0.23892851     0.10300
C2187       C  0.99442184  0.26302742  0.27350752    -0.53200
C2188       C  0.99480684  0.23103341  0.26407046     0.10900
H2189       H  0.55006047  0.31070680  0.24823096     0.15400
H2190       H  0.99708149  0.21109458  0.23529222     0.01100
H2191       H  0.94056939  0.31038142  0.24770209     0.15700
H2192       H  0.99279533  0.26427196  0.28838287     0.15500
C2193       C  0.99906551  0.39366303  0.29699532    -0.04500
C2194       C  0.97702998  0.39388807  0.28121419    -0.01700
C2195       C  0.97808674  0.36475752  0.26865867     0.03300
C2196       C  0.99810069  0.33273296  0.27281454    -0.04500
C2197       C  0.52475644  0.33376295  0.28764176    -0.01600
C2198       C  0.52560939  0.36409231  0.29939203     0.03300
C2199       C  0.95260069  0.42394642  0.27791300     0.38000
C2200       C  0.55196286  0.30575443  0.29004888     0.38000
C2201       C  0.55349348  0.36617100  0.31332538     0.36400
C2202       C  0.96233088  0.37078650  0.25070700     0.36400
N2203       N  0.57636971  0.36749377  0.32410312    -0.38400
N2204       N  0.94968994  0.37660001  0.23646313    -0.38400
N2205       N  0.57386480  0.28364960  0.29193150    -0.37900
N2206       N  0.93301639  0.44776807  0.27519510    -0.37900
C2207       C  0.98868225  0.13275949  0.29620859    -0.04500
C2208       C  0.51250983  0.13366434  0.28117980    -0.01700
C2209       C  0.51269536  0.16389540  0.26936689     0.03300
C2210       C  0.99023183  0.19531202  0.27364774    -0.04500
C2211       C  0.96436000  0.19204348  0.28791496    -0.01600
C2212       C  0.96348288  0.16103052  0.29894589     0.03300
C2213       C  0.53934886  0.10533519  0.27875724     0.38000
C2214       C  0.93733040  0.21989253  0.29103633     0.38000
C2215       C  0.93538219  0.15764427  0.31269502     0.36400
C2216       C  0.53565887  0.16264165  0.25329782     0.36400
N2217       N  0.91246753  0.15511135  0.32337653    -0.38400
N2218       N  0.55349513  0.15979131  0.24030752    -0.38400
N2219       N  0.91560841  0.24172430  0.29399009    -0.37900
N2220       N  0.56100066  0.08299465  0.27674869    -0.37900
C2221       C  0.49732035  0.12893682  0.42251454    -0.04500
C2222       C  0.98437202  0.12095527  0.43824332    -0.01700
C2223       C  0.98488227  0.14616537  0.45263404     0.03300
C2224       C  0.50551963  0.17499735  0.45334753    -0.04500
C2225       C  0.52845306  0.17800431  0.43794440    -0.01600
C2226       C  0.52342269  0.15617093  0.42231462     0.03300
C2227       C  0.96574335  0.08765423  0.44127491     0.38000
C2228       C  0.55822712  0.20273642  0.43851801     0.38000
C2229       C  0.54776655  0.15950378  0.40684355     0.36400
C2230       C  0.95970308  0.14288234  0.46777984     0.36400
N2231       N  0.56763183  0.16226332  0.39469391    -0.38400
N2232       N  0.93937776  0.14006563  0.47972390    -0.38400
N2233       N  0.58214009  0.22222137  0.43912567    -0.37900
N2234       N  0.95217256  0.06066485  0.44436698    -0.37900
C2235       C  0.00136065  0.40429196  0.42273626    -0.04500
C2236       C  0.53369823  0.37722914  0.42371085    -0.01700
C2237       C  0.53871106  0.35542736  0.43935489     0.03300
C2238       C  0.51500049  0.35848043  0.45448025    -0.04500
C2239       C  0.98251373  0.38353901  0.45313236    -0.01600
C2240       C  0.97879679  0.40766801  0.43842413     0.03300
C2241       C  0.55792947  0.37272363  0.40823477     0.38000
C2242       C  0.95634664  0.38410680  0.46796277     0.38000
C2243       C  0.95275192  0.43680192  0.44008900     0.36400
C2244       C  0.56866353  0.32998955  0.44002516     0.36400
N2245       N  0.93289596  0.46063508  0.44220551    -0.38400
N2246       N  0.59278990  0.30999028  0.44058152    -0.38400
N2247       N  0.93532337  0.38436900  0.47970526    -0.37900
N2248       N  0.57768240  0.36837607  0.39610150    -0.37900
C2249       C  0.60679734  0.50614906  0.42208553    -0.04500
C2250       C  0.60689066  0.03284673  0.43751989    -0.01700
C2251       C  0.63063004  0.02863088  0.45247187     0.03300
C2252       C  0.65490634  0.49892211  0.45209697    -0.04500
C2253       C  0.65806978  0.47570641  0.43679272    -0.01600
C2254       C  0.63383378  0.47900812  0.42192451     0.03300
C2255       C  0.58222557  0.06324137  0.43730960     0.38000
C2256       C  0.68643950  0.44853632  0.43632867     0.38000
C2257       C  0.63625204  0.45391920  0.40668743     0.36400
C2258       C  0.63031855  0.05483446  0.46726952     0.36400
N2259       N  0.63804067  0.43398854  0.39449317    -0.38400
N2260       N  0.62996777  0.07563348  0.47909889    -0.38400
N2261       N  0.70914249  0.42692889  0.43588179    -0.37900
N2262       N  0.56275376  0.08768809  0.43760165    -0.37900
C2263       C  0.87779095  0.52284967  0.42050063    -0.04500
C2264       C  0.87137503  0.55488747  0.43032930    -0.01700
C2265       C  0.85173068  0.55432258  0.44691937     0.03300
C2266       C  0.83687007  0.52197064  0.45315902    -0.04500
C2267       C  0.84222721  0.49018248  0.44281042    -0.01600
C2268       C  0.86243159  0.49071360  0.42645703     0.03300
C2269       C  0.88492322  0.08785269  0.42314220     0.38000
C2270       C  0.82709725  0.45676331  0.44900818     0.38000
C2271       C  0.86802539  0.45804085  0.41585928     0.36400
C2272       C  0.84665837  0.58696786  0.45748773     0.36400
N2273       N  0.87277240  0.43204121  0.40743468    -0.38400
N2274       N  0.84301488  0.61310774  0.46592056    -0.38400
N2275       N  0.81530968  0.42985524  0.45378027    -0.37900
N2276       N  0.89487259  0.11466619  0.41723286    -0.37900
C2277       C  0.60684110  0.00238310  0.57918020    -0.04500
C2278       C  0.60704077  0.02859844  0.56520554    -0.01700
C2279       C  0.63075437  0.02521418  0.55015825     0.03300
C2280       C  0.65035209  0.49269867  0.54690976    -0.04500
C2281       C  0.65065279  0.46643706  0.56079264    -0.01600
C2282       C  0.62710503  0.46977529  0.57600468     0.03300
C2283       C  0.58422879  0.06027242  0.56666000     0.38000
C2284       C  0.67641754  0.43685590  0.55966810     0.38000
C2285       C  0.62724594  0.44222747  0.58995074     0.36400
C2286       C  0.63367123  0.05430394  0.53709240     0.36400
N2287       N  0.62749816  0.42009865  0.60102225    -0.38400
N2288       N  0.63648907  0.07762913  0.52680507    -0.38400
N2289       N  0.69739892  0.41366916  0.55857451    -0.37900
N2290       N  0.56632496  0.08582859  0.56747981    -0.37900
C2291       C  0.87615663  0.51801767  0.58302720    -0.04500
C2292       C  0.86432644  0.05139662  0.57453754    -0.01700
C2293       C  0.84624387  0.04930028  0.55758469     0.03300
C2294       C  0.83382345  0.51668426  0.55075769    -0.04500
C2295       C  0.84261738  0.48448104  0.55993993    -0.01600
C2296       C  0.86352360  0.48515662  0.57612097     0.03300
C2297       C  0.87186912  0.08590973  0.58279050     0.38000
C2298       C  0.82940414  0.45077889  0.55284557     0.38000
C2299       C  0.87206184  0.45206496  0.58566827     0.36400
C2300       C  0.83574444  0.08175514  0.54797290     0.36400
N2301       N  0.87883276  0.42562366  0.59324978    -0.38400
N2302       N  0.82712866  0.10753189  0.54025855    -0.38400
N2303       N  0.81851899  0.42413376  0.54707415    -0.37900
N2304       N  0.87807334  0.11325585  0.58951740    -0.37900
C2305       C  0.00305808  0.13007824  0.58010747    -0.04500
C2306       C  0.98099197  0.12574589  0.56427595    -0.01700
C2307       C  0.98393847  0.14904351  0.54921101     0.03300
C2308       C  0.50739267  0.17343173  0.54997870    -0.04500
C2309       C  0.53090408  0.17645781  0.56515626    -0.01600
C2310       C  0.52564302  0.15563087  0.58103880     0.03300
C2311       C  0.95664701  0.09601585  0.56262471     0.38000
C2312       C  0.56102589  0.20071513  0.56427091     0.38000
C2313       C  0.54978971  0.16008275  0.59649878     0.36400
C2314       C  0.95806148  0.14727282  0.53427173     0.36400
N2315       N  0.56965790  0.16422479  0.60853876    -0.38400
N2316       N  0.93736175  0.14603374  0.52240433    -0.38400
N2317       N  0.58526212  0.21977398  0.56352661    -0.37900
N2318       N  0.93837605  0.07159794  0.56041933    -0.37900
C2319       C  0.00276196  0.40378575  0.57959774    -0.04500
C2320       C  0.53044720  0.37551826  0.58059146    -0.01700
C2321       C  0.53601406  0.35345373  0.56505402     0.03300
C2322       C  0.01299666  0.35753081  0.54903021    -0.04500
C2323       C  0.98594563  0.38442392  0.54861117    -0.01600
C2324       C  0.98206743  0.40855339  0.56337671     0.03300
C2325       C  0.55249147  0.36978282  0.59679422     0.38000
C2326       C  0.96055057  0.38597322  0.53345910     0.38000
C2327       C  0.95692608  0.43845095  0.56151403     0.36400
C2328       C  0.56626513  0.32833124  0.56433583     0.36400
N2329       N  0.93766100  0.46276126  0.55947315    -0.38400
N2330       N  0.59047825  0.30848018  0.56334761    -0.38400
N2331       N  0.93998223  0.38693552  0.52152106    -0.37900
N2332       N  0.56979542  0.36446746  0.60975810    -0.37900
C2333       C  0.62418649  0.24876923  0.20431178    -0.04500
C2334       C  0.62278459  0.23049126  0.22129207    -0.01700
C2335       C  0.59239204  0.23495421  0.23300700     0.03300
C2336       C  0.56086914  0.25300690  0.22677972    -0.04500
C2337       C  0.56247165  0.27191386  0.21010084    -0.01600
C2338       C  0.59442118  0.27143291  0.19953105     0.03300
C2339       C  0.65200940  0.20659509  0.22667968     0.38000
C2340       C  0.53184059  0.29397334  0.20440717     0.38000
C2341       C  0.59744653  0.29702857  0.18470314     0.36400
C2342       C  0.59475086  0.22379973  0.25201439     0.36400
N2343       N  0.59927659  0.31854138  0.17336987    -0.38400
N2344       N  0.59658098  0.21543511  0.26728033    -0.38400
N2345       N  0.00801731  0.31541441  0.20158623    -0.37900
N2346       N  0.67503868  0.18710982  0.23098850    -0.37900
C2347       C  0.87013574  0.23535167  0.20342116    -0.04500
C2348       C  0.86482063  0.25026836  0.22114538    -0.01700
C2349       C  0.89450154  0.25637171  0.23301469     0.03300
C2350       C  0.93072302  0.24933166  0.22721688    -0.04500
C2351       C  0.93583763  0.23268630  0.20988803    -0.01600
C2352       C  0.90604322  0.22501033  0.19838015     0.03300
C2353       C  0.82888634  0.26099602  0.22717621     0.38000
C2354       C  0.97188295  0.22419592  0.20323267     0.38000
C2355       C  0.91330681  0.20617479  0.18125377     0.36400
C2356       C  0.88678832  0.27014684  0.25126865     0.36400
N2357       N  0.92043948  0.19128671  0.16773521    -0.38400
N2358       N  0.87946488  0.28198393  0.26552408    -0.38400
N2359       N  0.00018393  0.21660216  0.19759786    -0.37900
N2360       N  0.80035624  0.26966666  0.23208090    -0.37900
C2361       C  0.76221996  0.08153947  0.04744939    -0.04500
C2362       C  0.73607819  0.10923087  0.04748115    -0.01700
C2363       C  0.73317794  0.13246239  0.06263507     0.03300
C2364       C  0.75469581  0.12661967  0.07851462    -0.04500
C2365       C  0.78146716  0.09927871  0.07824116    -0.01600
C2366       C  0.78565732  0.07732802  0.06259445     0.03300
C2367       C  0.71125601  0.11327402  0.03217410     0.38000
C2368       C  0.80564387  0.09432179  0.09370557     0.38000
C2369       C  0.81383975  0.04994860  0.06210284     0.36400
C2370       C  0.70835119  0.16270618  0.06139562     0.36400
N2371       N  0.83632360  0.02813198  0.06166646    -0.38400
N2372       N  0.68929360  0.18721287  0.05956777    -0.38400
N2373       N  0.82506043  0.08991958  0.10595794    -0.37900
N2374       N  0.69121595  0.11689127  0.02012298    -0.37900
C2375       C  0.74861326  0.34964082  0.07915646    -0.04500
C2376       C  0.73021775  0.34111049  0.06251197    -0.01700
C2377       C  0.72858749  0.36583371  0.04792676     0.03300
C2378       C  0.75092466  0.39597328  0.04807354    -0.04500
C2379       C  0.77320124  0.40191066  0.06354120    -0.01600
C2380       C  0.77016369  0.38058737  0.07942887     0.03300
C2381       C  0.71542674  0.30592208  0.05932774     0.38000
C2382       C  0.80058764  0.42912818  0.06278270     0.38000
C2383       C  0.79170630  0.38937744  0.09538464     0.36400
C2384       C  0.70369475  0.36005770  0.03284586     0.36400
N2385       N  0.80928031  0.39735609  0.10782738    -0.38400
N2386       N  0.68375079  0.35521314  0.02089608    -0.38400
N2387       N  0.82280001  0.45042689  0.06200475    -0.37900
N2388       N  0.70495669  0.27755546  0.05611453    -0.37900
C2389       C  0.75409222  0.12788435  0.92195397    -0.04500
C2390       C  0.73135532  0.13030441  0.93753494    -0.01700
C2391       C  0.73569866  0.10610889  0.95220507     0.03300
C2392       C  0.76392552  0.08032947  0.95194812    -0.04500
C2393       C  0.78740058  0.07853170  0.93666477    -0.01600
C2394       C  0.78201612  0.10162075  0.92156314     0.03300
C2395       C  0.70246500  0.15677512  0.93840205     0.38000
C2396       C  0.81697475  0.05264640  0.93641299     0.38000
C2397       C  0.80562944  0.09854979  0.90572181     0.36400
C2398       C  0.70996970  0.10669859  0.96722609     0.36400
N2399       N  0.82423868  0.09592349  0.89301120    -0.38400
N2400       N  0.68929016  0.10704770  0.97912226    -0.38400
N2401       N  0.84062553  0.03205970  0.93613223    -0.37900
N2402       N  0.67921023  0.17759541  0.93967798    -0.37900
C2403       C  0.75948686  0.40024504  0.95115963    -0.04500
C2404       C  0.79146872  0.38838463  0.94242809    -0.01700
C2405       C  0.78959505  0.36698032  0.92651891     0.03300
C2406       C  0.75574084  0.35754159  0.91934576    -0.04500
C2407       C  0.72384515  0.37156501  0.92726859    -0.01600
C2408       C  0.72562446  0.39162762  0.94363436     0.03300
C2409       C  0.82620119  0.39834909  0.94983933     0.38000
C2410       C  0.68942528  0.36608481  0.91828418     0.38000
C2411       C  0.69279454  0.40394030  0.95265905     0.36400
C2412       C  0.82242539  0.35484136  0.91743011     0.36400
N2413       N  0.66679900  0.41375707  0.96003635    -0.38400
N2414       N  0.84860859  0.34514403  0.91018750    -0.38400
N2415       N  0.66206883  0.36185651  0.91100807    -0.37900
N2416       N  0.85383831  0.40635157  0.95582687    -0.37900
C2417       C  0.01363166  0.13234657  0.70709409    -0.04500
C2418       C  0.99279164  0.13365218  0.72334198    -0.01700
C2419       C  0.98831914  0.16630628  0.73315690     0.03300
C2420       C  0.00878218  0.19664849  0.72836975    -0.04500
C2421       C  0.53414729  0.19056371  0.71447032    -0.01600
C2422       C  0.53599198  0.15891586  0.70380134     0.03300
C2423       C  0.97863057  0.10096964  0.73090010     0.38000
C2424       C  0.56008291  0.21847717  0.71100315     0.38000
C2425       C  0.56357826  0.15492216  0.68976524     0.36400
C2426       C  0.96116195  0.16860863  0.74743241     0.36400
N2427       N  0.58612395  0.15157169  0.67887354    -0.38400
N2428       N  0.93908628  0.16969787  0.75866442    -0.38400
N2429       N  0.58095811  0.24049322  0.70818659    -0.37900
N2430       N  0.96894087  0.07462863  0.73744821    -0.37900
C2431       C  0.99160669  0.33335428  0.72841720    -0.04500
C2432       C  0.51100029  0.36436167  0.73364817    -0.01700
C2433       C  0.51064071  0.39421356  0.72164904     0.03300
C2434       C  0.98885948  0.39490876  0.70484287    -0.04500
C2435       C  0.96663038  0.36510596  0.70143584    -0.01600
C2436       C  0.96867471  0.33437349  0.71271561     0.03300
C2437       C  0.52590324  0.36968865  0.75185041     0.38000
C2438       C  0.94074423  0.36581726  0.68647704     0.38000
C2439       C  0.94647410  0.30416954  0.70781549     0.36400
C2440       C  0.53255041  0.42470390  0.72623027     0.36400
N2441       N  0.92913043  0.28038127  0.70307340    -0.38400
N2442       N  0.55066016  0.44833245  0.73030075    -0.38400
N2443       N  0.91963675  0.36526063  0.67478787    -0.37900
N2444       N  0.53825141  0.37518722  0.76616863    -0.37900
C2445       C  0.56358997  0.25533583  0.77604363    -0.04500
C2446       C  0.58941777  0.22740662  0.77345714    -0.01700
C2447       C  0.62079969  0.22543335  0.78459495     0.03300
C2448       C  0.62664855  0.25126759  0.79844783    -0.04500
C2449       C  0.60019337  0.27858409  0.80132231    -0.01600
C2450       C  0.56883087  0.28023591  0.79040694     0.03300
C2451       C  0.58403508  0.20022448  0.75957280     0.38000
C2452       C  0.60559278  0.30616669  0.81512473     0.38000
C2453       C  0.54097993  0.30686414  0.79452811     0.36400
C2454       C  0.64643517  0.19601879  0.78221810     0.36400
N2455       N  0.51857402  0.32770448  0.79804231    -0.38400
N2456       N  0.66679636  0.17248740  0.78031433    -0.38400
N2457       N  0.60967293  0.32885264  0.82576009    -0.37900
N2458       N  0.58101584  0.17743747  0.74890727    -0.37900
C2459       C  0.87319538  0.23819763  0.79781581    -0.04500
C2460       C  0.90946543  0.23071199  0.80354617    -0.01700
C2461       C  0.93918877  0.23806344  0.79199087     0.03300
C2462       C  0.93372853  0.24937913  0.77374429    -0.04500
C2463       C  0.89763978  0.25208148  0.76721934    -0.01600
C2464       C  0.86783450  0.24835902  0.77926713     0.03300
C2465       C  0.91717457  0.21462846  0.82126617     0.38000
C2466       C  0.89053964  0.25717056  0.74784403     0.38000
C2467       C  0.83181749  0.25606821  0.77239255     0.36400
C2468       C  0.97543200  0.23508754  0.79939333     0.36400
N2469       N  0.80318627  0.26235696  0.76682300    -0.38400
N2470       N  0.00401169  0.23245964  0.80566846    -0.38400
N2471       N  0.88346343  0.26059167  0.73248108    -0.37900
N2472       N  0.92430357  0.20169274  0.83524598    -0.37900
C2473       C  0.81458238  0.99382148  0.72868603    -0.04500
C2474       C  0.84045075  0.01975808  0.73320595    -0.01700
C2475       C  0.86908714  0.02698164  0.72098718     0.03300
C2476       C  0.87782685  0.50888448  0.70607561    -0.04500
C2477       C  0.85636813  0.47808859  0.70404935    -0.01600
C2478       C  0.82477407  0.47379475  0.71461868     0.03300
C2479       C  0.84057469  0.03566293  0.75137455     0.38000
C2480       C  0.86615711  0.45085072  0.69063257     0.38000
C2481       C  0.80240298  0.44286804  0.71128572     0.36400
C2482       C  0.88674371  0.06108726  0.72221958     0.36400
N2483       N  0.78464435  0.41819586  0.70860649    -0.38400
N2484       N  0.89887797  0.08939611  0.72271043    -0.38400
N2485       N  0.87338570  0.42893479  0.67993187    -0.37900
N2486       N  0.84158299  0.04750228  0.76608417    -0.37900
C2487       C  0.68480107  0.00207051  0.72682797    -0.04500
C2488       C  0.64952651  0.50559476  0.73325828    -0.01700
C2489       C  0.61999845  0.51175599  0.72115601     0.03300
C2490       C  0.62438138  0.01107114  0.70226175    -0.04500
C2491       C  0.66063064  0.00649263  0.69554550    -0.01600
C2492       C  0.69034108  0.00428195  0.70777549     0.03300
C2493       C  0.64231100  0.50362962  0.75273673     0.38000
C2494       C  0.66859873  0.00293838  0.67607535     0.38000
C2495       C  0.72675269  0.00420170  0.70051208     0.36400
C2496       C  0.58505812  0.52109110  0.72896174     0.36400
N2497       N  0.75534038  0.00531742  0.69421428    -0.38400
N2498       N  0.55737165  0.52858570  0.73537653    -0.38400
N2499       N  0.67580763  0.99990402  0.66066782    -0.37900
N2500       N  0.63431465  0.50188383  0.76804270    -0.37900
C2501       C  0.73973923  0.12046052  0.79644230    -0.04500
C2502       C  0.71539667  0.09252715  0.79957181    -0.01700
C2503       C  0.71788084  0.06034222  0.78940468     0.03300
C2504       C  0.74182280  0.05695697  0.77413430    -0.04500
C2505       C  0.76061958  0.08827302  0.76878591    -0.01600
C2506       C  0.76182472  0.11852958  0.78065520     0.03300
C2507       C  0.68639364  0.09739510  0.81279267     0.38000
C2508       C  0.77769638  0.09106765  0.75099049     0.38000
C2509       C  0.78706798  0.14687024  0.77692685     0.36400
C2510       C  0.69531600  0.03102520  0.79512846     0.36400
N2511       N  0.80756920  0.16914667  0.77395513    -0.38400
N2512       N  0.67651105  0.50721046  0.80010820    -0.38400
N2513       N  0.79082371  0.09504719  0.73672516    -0.37900
N2514       N  0.66251270  0.10107140  0.82288624    -0.37900
C2515       C  0.75032863  0.42219572  0.77481539    -0.04500
C2516       C  0.71946159  0.40066286  0.77804271    -0.01700
C2517       C  0.72269294  0.36767442  0.78737247     0.03300
C2518       C  0.75509245  0.35747112  0.79594294    -0.04500
C2519       C  0.78517417  0.37976084  0.79435012    -0.01600
C2520       C  0.78283303  0.41204159  0.78420853     0.03300
C2521       C  0.68312746  0.41377620  0.77463514     0.38000
C2522       C  0.81875824  0.36934016  0.80325445     0.38000
C2523       C  0.81352557  0.43568030  0.78469743     0.36400
C2524       C  0.69170527  0.34477806  0.78897827     0.36400
N2525       N  0.83813609  0.45433734  0.78511920    -0.38400
N2526       N  0.66702614  0.32642617  0.78997308    -0.38400
N2527       N  0.84561581  0.36094464  0.81022940    -0.37900
N2528       N  0.65361326  0.42312654  0.77222808    -0.37900
C2529       C  0.59237987  0.22061586  0.04883814    -0.04500
C2530       C  0.59864870  0.19174901  0.06088900    -0.01700
C2531       C  0.61690478  0.19740383  0.07755065     0.03300
C2532       C  0.63045050  0.23157614  0.08168018    -0.04500
C2533       C  0.62383037  0.26051659  0.06977970    -0.01600
C2534       C  0.60566075  0.25486465  0.05310838     0.03300
C2535       C  0.58728188  0.15609636  0.05579604     0.38000
C2536       C  0.63412030  0.29634176  0.07523611     0.38000
C2537       C  0.60022849  0.28428362  0.04041963     0.36400
C2538       C  0.62236762  0.16797494  0.09026131     0.36400
N2539       N  0.59626689  0.30768452  0.03021149    -0.38400
N2540       N  0.62641382  0.14452472  0.10043541    -0.38400
N2541       N  0.64221006  0.32485201  0.07975808    -0.37900
N2542       N  0.57881532  0.12753316  0.05157854    -0.37900
C2543       C  0.90396041  0.21961490  0.04804745    -0.04500
C2544       C  0.88219557  0.25073152  0.04987181    -0.01700
C2545       C  0.85903196  0.25480997  0.06509048     0.03300
C2546       C  0.85813527  0.22819566  0.07882427    -0.04500
C2547       C  0.88012499  0.19715182  0.07699293    -0.01600
C2548       C  0.90270516  0.19273299  0.06155926     0.03300
C2549       C  0.88530622  0.27955373  0.03666731     0.38000
C2550       C  0.87977580  0.16972644  0.09100362     0.38000
C2551       C  0.92562622  0.16105214  0.05984659     0.36400
C2552       C  0.83770997  0.28742328  0.06702969     0.36400
N2553       N  0.94400206  0.13583369  0.05855031    -0.38400
N2554       N  0.82124221  0.31385186  0.06829835    -0.38400
N2555       N  0.88008022  0.14784046  0.10219536    -0.37900
N2556       N  0.88797338  0.30276850  0.02630090    -0.37900
C2557       C  0.59022499  0.22972673  0.95314323    -0.04500
C2558       C  0.58653314  0.20774205  0.93742879    -0.01700
C2559       C  0.60885277  0.21255406  0.92202255     0.03300
C2560       C  0.63577635  0.23890696  0.92234120    -0.04500
C2561       C  0.64039170  0.25981195  0.93847999    -0.01600
C2562       C  0.61680887  0.25618492  0.95348547     0.03300
C2563       C  0.56008372  0.17957052  0.93721363     0.38000
C2564       C  0.67064453  0.28354198  0.94036011     0.38000
C2565       C  0.61955127  0.28010939  0.96919001     0.36400
C2566       C  0.60630305  0.18786640  0.90664123     0.36400
N2567       N  0.62166501  0.29917257  0.98170655    -0.38400
N2568       N  0.60436469  0.16765383  0.89460546    -0.38400
N2569       N  0.69543379  0.30140482  0.94258389    -0.37900
N2570       N  0.53914331  0.15697257  0.93691169    -0.37900
C2571       C  0.90686325  0.22250250  0.95309984    -0.04500
C2572       C  0.91140802  0.20069268  0.93739196    -0.01700
C2573       C  0.88989876  0.20662580  0.92174619     0.03300
C2574       C  0.86151692  0.23239774  0.92231389    -0.04500
C2575       C  0.85541316  0.25227562  0.93874682    -0.01600
C2576       C  0.87923036  0.24868455  0.95363715     0.03300
C2577       C  0.93779499  0.17158694  0.93751003     0.38000
C2578       C  0.82396603  0.27540193  0.94099560     0.38000
C2579       C  0.87565135  0.27236670  0.96944838     0.36400
C2580       C  0.89629703  0.18491669  0.90546187     0.36400
N2581       N  0.87290639  0.29120076  0.98205246    -0.38400
N2582       N  0.90207638  0.16744624  0.89259984    -0.38400
N2583       N  0.79845255  0.29287425  0.94363238    -0.37900
N2584       N  0.95830828  0.14792200  0.93759933    -0.37900
C2585       C  0.80979982  0.99660504  0.27562624    -0.04500
C2586       C  0.83812587  0.51321514  0.26889647    -0.01700
C2587       C  0.86830143  0.51799870  0.28062459     0.03300
C2588       C  0.87056891  0.49976947  0.29760222    -0.04500
C2589       C  0.84501124  0.97905566  0.30283209    -0.01600
C2590       C  0.81337766  0.97676112  0.29203904     0.03300
C2591       C  0.84012970  0.52486019  0.24996633     0.38000
C2592       C  0.85040208  0.95403899  0.31782333     0.38000
C2593       C  0.78528506  0.95215696  0.29727759     0.36400
C2594       C  0.89659616  0.54210263  0.27523307     0.36400
N2595       N  0.76294348  0.93242947  0.30136040    -0.38400
N2596       N  0.91900006  0.56160047  0.27095082    -0.38400
N2597       N  0.85490807  0.93345886  0.32947167    -0.37900
N2598       N  0.84229266  0.53367240  0.23478763    -0.37900
C2599       C  0.61775832  0.01186449  0.29791859    -0.04500
C2600       C  0.61007991  0.49655908  0.27931846    -0.01700
C2601       C  0.64013993  0.49142070  0.26740145     0.03300
C2602       C  0.67898455  0.99906057  0.27411054    -0.04500
C2603       C  0.68313896  0.01590698  0.29141005    -0.01600
C2604       C  0.65278174  0.02415395  0.30257472     0.03300
C2605       C  0.57475754  0.48481705  0.27341356     0.38000
C2606       C  0.71872332  0.02397056  0.29841024     0.38000
C2607       C  0.65822475  0.04647024  0.31866973     0.36400
C2608       C  0.63315307  0.47887223  0.24889220     0.36400
N2609       N  0.66365793  0.06465336  0.33123750    -0.38400
N2610       N  0.62637821  0.46830934  0.23435390    -0.38400
N2611       N  0.74669480  0.03097352  0.30434622    -0.37900
N2612       N  0.54667608  0.47538333  0.26864536    -0.37900
C2613       C  0.73934400  0.05334598  0.22757298    -0.04500
C2614       C  0.75899209  0.08451088  0.23233197    -0.01700
C2615       C  0.75956255  0.11452786  0.22039265     0.03300
C2616       C  0.73777778  0.11555925  0.20448141    -0.04500
C2617       C  0.71394028  0.08701208  0.20132688    -0.01600
C2618       C  0.71520688  0.05599170  0.21242210     0.03300
C2619       C  0.77783178  0.08711332  0.24966952     0.38000
C2620       C  0.68699791  0.08996125  0.18690984     0.38000
C2621       C  0.69043944  0.02735520  0.20831859     0.36400
C2622       C  0.78390882  0.14370077  0.22412990     0.36400
N2623       N  0.67084071  0.00464960  0.20460405    -0.38400
N2624       N  0.80346832  0.16688977  0.22702060    -0.38400
N2625       N  0.66516531  0.09233382  0.17560687    -0.37900
N2626       N  0.79220182  0.09079552  0.26365144    -0.37900
C2627       C  0.75308758  0.35391223  0.20547765    -0.04500
C2628       C  0.77757896  0.38214987  0.20330708    -0.01700
C2629       C  0.77534544  0.41288821  0.21466594     0.03300
C2630       C  0.74860809  0.41597331  0.22865076    -0.04500
C2631       C  0.73000682  0.38399457  0.23317912    -0.01600
C2632       C  0.73022718  0.35435306  0.22095872     0.03300
C2633       C  0.80681840  0.37863933  0.19012611     0.38000
C2634       C  0.71601157  0.37841310  0.25150240     0.38000
C2635       C  0.70701770  0.32423575  0.22451076     0.36400
C2636       C  0.80272738  0.43996199  0.21274200     0.36400
N2637       N  0.68854399  0.30022749  0.22740539    -0.38400
N2638       N  0.82500030  0.46110772  0.21129638    -0.38400
N2639       N  0.70540503  0.37336105  0.26620651    -0.37900
N2640       N  0.83072386  0.37596321  0.17997256    -0.37900
C2641       C  0.74742182  0.95174311  0.24063989     0.87300
C2642       C  0.77943353  0.95730980  0.25334283    -0.53000
C2643       C  0.77649205  0.48718596  0.26232670     0.10200
C2644       C  0.74277025  0.51178804  0.25860051     0.21200
C2645       C  0.71370404  0.95702243  0.25289974    -0.53700
C2646       C  0.70899758  0.48818751  0.26184125     0.10300
C2647       C  0.74601984  0.98555994  0.22840694    -0.53200
C2648       C  0.74262924  0.51782109  0.23761513     0.10900
H2649       H  0.80122866  0.93769469  0.25470362     0.15400
H2650       H  0.74219501  0.53707861  0.26650990     0.01100
H2651       H  0.69194609  0.93818900  0.25336642     0.15700
H2652       H  0.74366533  0.48513256  0.21304490     0.15500
N2653       N  0.99862454  0.72657373  0.97533067    -0.35800
N2654       N  0.94293469  0.72195484  0.00315770    -0.56400
N2655       N  0.99798322  0.71636656  0.03045053    -0.35800
N2656       N  0.55067813  0.71330584  0.00181320    -0.56400
C2657       C  0.96905455  0.73896317  0.96652378     0.27800
C2658       C  0.52585863  0.72711550  0.96456290     0.27800
C2659       C  0.96876071  0.72289043  0.04116623     0.27800
C2660       C  0.52348217  0.72054095  0.03977086     0.27800
C2661       C  0.92267103  0.71773320  0.98798051     0.36400
C2662       C  0.92202846  0.71334042  0.01757091     0.36400
C2663       C  0.57178885  0.70733428  0.98698530     0.36400
C2664       C  0.57093471  0.70590547  0.01673081     0.36400
C2665       C  0.97901081  0.75962361  0.95163254    -0.21100
C2666       C  0.51564822  0.74602272  0.94900318    -0.21100
C2667       C  0.97961166  0.73377004  0.05849258    -0.21100
C2668       C  0.51241638  0.73412577  0.05669157    -0.21100
C2669       C  0.88858526  0.70617809  0.99271042    -0.22200
C2670       C  0.88808557  0.70370143  0.01158771    -0.22200
C2671       C  0.60571376  0.69547007  0.99248702    -0.22200
C2672       C  0.60527005  0.69492259  0.01143550    -0.22200
C2673       C  0.93365981  0.72840296  0.97034162    -0.17500
C2674       C  0.56167825  0.71713704  0.96895021    -0.17500
C2675       C  0.55967323  0.71309467  0.03487940    -0.21500
C2676       C  0.93259317  0.71750509  0.03601879    -0.17500
H2677       H  0.96140362  0.77258573  0.94174550     0.15400
H2678       H  0.53305004  0.75733307  0.93867877     0.15400
H2679       H  0.96274114  0.74043713  0.07018880     0.15400
H2680       H  0.52908705  0.74180300  0.06820569     0.15400
H2681       H  0.86611387  0.70136942  0.98359452     0.13700
H2682       H  0.86528020  0.69634652  0.01996262     0.13700
H2683       H  0.62873206  0.68939649  0.98381335     0.13700
H2684       H  0.62779198  0.68815946  0.02029314     0.13700
H2685       H  0.99900504  0.70668789  0.98533001     0.27000
H2686       H  0.99823743  0.70406144  0.01761849     0.26900
C2687       C  0.74651731  0.95459563  0.76273356     0.87300
C2688       C  0.71498102  0.96013152  0.74900179    -0.53000
C2689       C  0.71629786  0.49215557  0.73932926     0.10200
C2690       C  0.74880376  0.51638059  0.74360553     0.21200
C2691       C  0.77964066  0.95705137  0.75033849    -0.53700
C2692       C  0.78328118  0.49205154  0.74078240     0.10300
C2693       C  0.74722430  0.98918579  0.77426419    -0.53200
C2694       C  0.74604490  0.52280964  0.76468796     0.10900
H2695       H  0.69493784  0.94054640  0.74564970     0.15400
H2696       H  0.74808848  0.54055792  0.73496799     0.01100
H2697       H  0.80009836  0.93596247  0.74943247     0.15700
H2698       H  0.74833525  0.48998757  0.78915930     0.15500
C2699       C  0.49922953  0.79507168  0.73976258     0.87300
C2700       C  0.96269596  0.79196099  0.75216160    -0.53000
C2701       C  0.96368292  0.76053084  0.76176633     0.10200
C2702       C  0.50186044  0.73529305  0.75876122     0.21200
C2703       C  0.53188211  0.79164556  0.75284714    -0.53700
C2704       C  0.53333595  0.76091604  0.76299509     0.10300
C2705       C  0.50340891  0.76070948  0.72809140    -0.53200
C2706       C  0.50467559  0.72933193  0.73774630     0.10900
H2707       H  0.94072258  0.81137680  0.75347050     0.15400
H2708       H  0.50351169  0.71019573  0.76679628     0.01100
H2709       H  0.55390478  0.81029859  0.75329469     0.15700
H2710       H  0.50641828  0.76120649  0.71327513     0.15500
N2711       N  0.75789460  0.48664397  0.02798154    -0.35800
N2712       N  0.75303800  0.93371630  0.00160238    -0.56400
N2713       N  0.77063034  0.49014062  0.97289319    -0.35800
N2714       N  0.77156862  0.54263996  0.00164158    -0.56400
C2715       C  0.74619345  0.96175032  0.03869387     0.27800
C2716       C  0.74986832  0.51624118  0.03795212     0.27800
C2717       C  0.74907185  0.95973851  0.96320850     0.27800
C2718       C  0.76709266  0.52060470  0.96298334     0.27800
C2719       C  0.75758917  0.91286343  0.01660164     0.36400
C2720       C  0.75747598  0.91225385  0.98679670     0.36400
C2721       C  0.77630091  0.56150301  0.01726023     0.36400
C2722       C  0.78160161  0.56387765  0.98764127     0.36400
C2723       C  0.72968046  0.97512856  0.05440063    -0.21100
C2724       C  0.72921767  0.50703313  0.05307204    -0.21100
C2725       C  0.73599088  0.97110002  0.94630477    -0.21100
C2726       C  0.75429217  0.51256656  0.94557422    -0.21100
C2727       C  0.76488705  0.87780762  0.01126390    -0.22200
C2728       C  0.76437151  0.87735581  0.99232872    -0.22200
C2729       C  0.78998869  0.59491132  0.01320426    -0.22200
C2730       C  0.79299637  0.59653412  0.99435633    -0.22200
C2731       C  0.75185212  0.92505289  0.03484852    -0.17500
C2732       C  0.76359595  0.55065752  0.03464600    -0.17500
C2733       C  0.77618828  0.55537868  0.96894663    -0.17500
C2734       C  0.75286642  0.92358448  0.96846109    -0.17500
H2735       H  0.71761957  0.96005054  0.06540997     0.15400
H2736       H  0.71923051  0.52460256  0.06385349     0.15400
H2737       H  0.72512491  0.95481723  0.93536021     0.15400
H2738       H  0.74889382  0.53089547  0.93439504     0.15400
H2739       H  0.76918503  0.85483625  0.02005193     0.13700
H2740       H  0.76825569  0.85402334  0.98363772     0.13700
H2741       H  0.79548606  0.61646162  0.02273635     0.13700
H2742       H  0.80144344  0.61942752  0.98647217     0.13700
H2743       H  0.77699201  0.48494502  0.01752259     0.27000
H2744       H  0.78324995  0.48730507  0.98557503     0.26900
O2745       O  0.84922673  0.73952892  0.89154146    -0.74500
O2746       O  0.80302436  0.74096051  0.91213610    -0.53400
C2747       C  0.83656915  0.73992920  0.90812437     0.79200
O2748       O  0.75311339  0.83877320  0.82728318    -0.59100
O2749       O  0.75157528  0.79429094  0.80563278    -0.52100
C2750       C  0.75308652  0.82747204  0.81053702     0.71200
O2751       O  0.75025251  0.84155689  0.88928300    -0.73700
O2752       O  0.74724929  0.79692156  0.91057913    -0.54200
C2753       C  0.74861986  0.82986918  0.90585419     0.77200
O2754       O  0.85184777  0.74190072  0.82950934    -0.58800
O2755       O  0.80880791  0.73549933  0.80750033    -0.51900
C2756       C  0.84218579  0.73859065  0.81265151     0.73800
Zr2757     Zr  0.82513765  0.73847245  0.85981153     2.54700
O2758       O  0.87618696  0.77860132  0.86079333    -0.79400
O2759       O  0.86316086  0.68475241  0.85869267    -0.92800
Zr2760     Zr  0.74984747  0.81526406  0.85853631     2.64700
O2761       O  0.79533795  0.86164867  0.85842144    -0.97700
O2762       O  0.70105595  0.85957575  0.85744099    -0.79800
O2763       O  0.78826141  0.77867297  0.87694796    -0.83200
O2764       O  0.78792369  0.77630979  0.84129352    -2.17900
O2765       O  0.74431325  0.63896572  0.82905167    -0.66500
O2766       O  0.74382176  0.68217564  0.80692605    -0.51100
C2767       C  0.74236820  0.64926327  0.81215005     0.72200
O2768       O  0.65001811  0.73633089  0.89168040    -0.59500
O2769       O  0.69603269  0.73715277  0.91229966    -0.51400
C2770       C  0.66255487  0.73523540  0.90827249     0.74000
O2771       O  0.64739532  0.74638540  0.82975310    -0.70900
O2772       O  0.69035957  0.74364965  0.80726534    -0.49500
C2773       C  0.65714944  0.74651553  0.81282519     0.75400
O2774       O  0.75702690  0.64150036  0.89174322    -0.66200
O2775       O  0.75284300  0.68768194  0.91234639    -0.53400
C2776       C  0.75680264  0.65438824  0.90829998     0.73800
Zr2777     Zr  0.74944684  0.66470014  0.86003903     2.77500
O2778       O  0.70051933  0.62305640  0.86432616    -0.96900
O2779       O  0.79424791  0.61662281  0.85727151    -0.77800
Zr2780     Zr  0.67390927  0.74164606  0.86006388     2.70100
O2781       O  0.62786755  0.69636959  0.85686740    -0.79000
O2782       O  0.62958751  0.79027109  0.86263575    -0.98100
Zr2783     Zr  0.74941178  0.74121808  0.89405841     2.21500
Zr2784     Zr  0.74936658  0.73887840  0.82337218     2.11100
O2785       O  0.71123541  0.70269160  0.84210696    -2.46800
O2786       O  0.71078294  0.70258890  0.87765482    -0.78800
O2787       O  0.78753366  0.70090953  0.84172166    -0.71000
O2788       O  0.71114351  0.78023025  0.87698046    -2.31900
O2789       O  0.78801350  0.70163049  0.87745602    -2.28200
O2790       O  0.71133279  0.77783134  0.84128440    -0.72700
H2791       H  0.80300316  0.79049252  0.83344799     0.79300
H2792       H  0.69648959  0.79524708  0.88500345     0.80300
H2793       H  0.69568531  0.68841590  0.83452688     0.82600
H2794       H  0.80304272  0.68751772  0.88556550     0.80200
H2795       H  0.67915873  0.84548706  0.85506567     0.43200
H2796       H  0.60659851  0.77830488  0.86536797     0.42200
H2797       H  0.60500244  0.71012411  0.85543050     0.41900
H2798       H  0.68034503  0.63336531  0.85707341     0.39800
H2799       H  0.78198295  0.59518687  0.86200091     0.42900
H2800       H  0.85673264  0.67300761  0.84694844     0.37700
H2801       H  0.89759787  0.76246086  0.86141373     0.43800
H2802       H  0.80819159  0.85896135  0.87026526     0.40200
H2803       H  0.70820793  0.60124630  0.85751390     0.45200
H2804       H  0.85341409  0.66871114  0.86818715     0.43900
H2805       H  0.81317023  0.85358009  0.84910684     0.44000
H2806       H  0.63562245  0.80308129  0.87413313     0.44400
O2807       O  0.84413525  0.73572852  0.17435918    -0.74500
O2808       O  0.80070630  0.73331372  0.19643446    -0.53400
C2809       C  0.83413185  0.73450252  0.19126405     0.79200
O2810       O  0.74274320  0.83629156  0.11297418    -0.59100
O2811       O  0.74325860  0.79104168  0.09190160    -0.52100
C2812       C  0.74346539  0.82434194  0.09623321     0.71200
O2813       O  0.74623829  0.83527960  0.17567204    -0.73700
O2814       O  0.74575838  0.79165221  0.19755997    -0.54200
C2815       C  0.74749582  0.82467787  0.19251538     0.77200
O2816       O  0.84240625  0.73062517  0.11274674    -0.58800
O2817       O  0.79689690  0.73383272  0.09170319    -0.51900
C2818       C  0.83029751  0.73086354  0.09612436     0.73800
Zr2819     Zr  0.81724055  0.73444900  0.14396625     2.54700
O2820       O  0.86442571  0.77900291  0.14377744    -0.79400
O2821       O  0.85812592  0.68317437  0.14187929    -0.92800
Zr2822     Zr  0.74116306  0.81106846  0.14446501     2.64700
O2823       O  0.78495217  0.85858638  0.14582488    -0.97700
O2824       O  0.69010029  0.85278950  0.14590781    -0.79800
O2825       O  0.77929474  0.77254190  0.16202283    -0.83200
O2826       O  0.78056685  0.77428982  0.12664275    -2.17900
O2827       O  0.74858756  0.63696304  0.11249097    -0.66500
O2828       O  0.74665477  0.68275053  0.09189166    -0.51100
C2829       C  0.74911982  0.64951738  0.09597255     0.72200
O2830       O  0.64059266  0.73930031  0.17455554    -0.59500
O2831       O  0.68373334  0.74104876  0.19686720    -0.51400
C2832       C  0.65045915  0.74199826  0.19142182     0.74000
O2833       O  0.64111423  0.73039646  0.11344160    -0.70900
O2834       O  0.68625526  0.73581315  0.09237976    -0.49500
C2835       C  0.65311217  0.73192667  0.09692540     0.75400
O2836       O  0.73916684  0.63531509  0.17477374    -0.66200
O2837       O  0.73798741  0.67864154  0.19699496    -0.53400
C2838       C  0.73744158  0.64561628  0.19166383     0.73800
Zr2839     Zr  0.74207630  0.66048998  0.14398878     2.77500
O2840       O  0.69211906  0.61918781  0.14148112    -0.96900
O2841       O  0.78580037  0.61138732  0.14610136    -0.77800
Zr2842     Zr  0.66666762  0.73623008  0.14409996     2.70100
O2843       O  0.61978763  0.69142149  0.14615688    -0.79000
O2844       O  0.62319533  0.78495868  0.14005667    -0.98100
Zr2845     Zr  0.74188084  0.73539523  0.18038470     2.21500
Zr2846     Zr  0.74204456  0.73671051  0.10944241     2.11100
O2847       O  0.70402858  0.69791894  0.12620268    -2.46800
O2848       O  0.70392859  0.69795836  0.16220690    -0.78800
O2849       O  0.78002296  0.69725885  0.12633628    -0.71000
O2850       O  0.70362369  0.77388584  0.16233019    -2.31900
O2851       O  0.78024424  0.69698749  0.16217500    -2.28200
O2852       O  0.70279140  0.77500576  0.12644874    -0.72700
H2853       H  0.79536051  0.78857039  0.11875024     0.79300
H2854       H  0.68880902  0.78910701  0.17009599     0.80300
H2855       H  0.68996429  0.68325669  0.11801521     0.82600
H2856       H  0.79504302  0.68195998  0.16992793     0.80200
H2857       H  0.67409215  0.84530098  0.13576169     0.43200
H2858       H  0.62827549  0.79485628  0.12774529     0.42200
H2859       H  0.60016832  0.70012625  0.13800915     0.41900
H2860       H  0.67903012  0.62607057  0.13016040     0.39800
H2861       H  0.77122176  0.58945774  0.14524562     0.42900
H2862       H  0.85423785  0.66965194  0.15334519     0.37700
H2863       H  0.85652657  0.79673892  0.13448085     0.43800
H2864       H  0.80567405  0.84929305  0.13858163     0.40200
H2865       H  0.70359399  0.59578985  0.13845261     0.45200
H2866       H  0.88243432  0.69348146  0.14301742     0.43900
H2867       H  0.77436546  0.87826477  0.13842022     0.44000
H2868       H  0.59975934  0.77292363  0.13863805     0.44400
O2869       O  0.60010752  0.51397321  0.67148971    -0.74500
O2870       O  0.55958171  0.50942358  0.69464508    -0.53400
C2871       C  0.59249353  0.51138960  0.68860853     0.79200
O2872       O  0.00208514  0.61488482  0.61226621    -0.59100
O2873       O  0.99817322  0.56951569  0.59142545    -0.52100
C2874       C  0.00103204  0.60266257  0.59558733     0.71200
O2875       O  0.00682284  0.61359823  0.67510840    -0.73700
O2876       O  0.00386776  0.57041179  0.69713363    -0.54200
C2877       C  0.00716248  0.60321811  0.69199631     0.77200
O2878       O  0.59214353  0.50188511  0.60992963    -0.58800
O2879       O  0.54510795  0.50999871  0.59014310    -0.51900
C2880       C  0.57856942  0.50393564  0.59359601     0.73800
Zr2881     Zr  0.57082217  0.50938859  0.64189956     2.54700
O2882       O  0.61910931  0.55204045  0.63790578    -0.79400
O2883       O  0.61317775  0.96135292  0.64330525    -0.92800
Zr2884     Zr  0.99895152  0.59029193  0.64391847     2.64700
O2885       O  0.54573656  0.63558112  0.64492127    -0.97700
O2886       O  0.94748805  0.63152572  0.64531492    -0.79800
O2887       O  0.53661666  0.54876756  0.66106597    -0.83200
O2888       O  0.53475048  0.55114302  0.62557684    -2.17900
O2889       O  0.99413799  0.91903483  0.61169422    -0.66500
O2890       O  0.99085500  0.96479967  0.59117356    -0.51100
C2891       C  0.99357361  0.93156156  0.59517919     0.72200
O2892       O  0.89614553  0.51718439  0.67564575    -0.59500
O2893       O  0.94091016  0.51503907  0.69725774    -0.51400
C2894       C  0.90575901  0.01123424  0.69239874     0.74000
O2895       O  0.89218273  0.51890836  0.61470335    -0.70900
O2896       O  0.93649545  0.51772097  0.59292866    -0.49500
C2897       C  0.90157518  0.02134087  0.59847085     0.75400
O2898       O  0.98701453  0.91654645  0.67404751    -0.66200
O2899       O  0.99367772  0.95844811  0.69655235    -0.53400
C2900       C  0.98918528  0.92584760  0.69107913     0.73800
Zr2901     Zr  0.98888639  0.94217374  0.64328699     2.77500
O2902       O  0.93734549  0.90316120  0.63953672    -0.96900
O2903       O  0.53874663  0.89097204  0.64499615    -0.77800
Zr2904     Zr  0.92097728  0.51991535  0.64499781     2.70100
O2905       O  0.86224231  0.99196096  0.64508226    -0.79000
O2906       O  0.88136161  0.57251062  0.64594518    -0.98100
Zr2907     Zr  0.99908916  0.51434125  0.67998324     2.21500
Zr2908     Zr  0.99359516  0.51595126  0.60903565     2.11100
O2909       O  0.95163857  0.98266484  0.62677996    -2.46800
O2910       O  0.95495180  0.98217642  0.66217159    -0.78800
O2911       O  0.53196715  0.97550520  0.62566111    -0.71000
O2912       O  0.96127176  0.55485084  0.66281704    -2.31900
O2913       O  0.53434376  0.97453009  0.66143010    -2.28200
O2914       O  0.95750542  0.55662413  0.62646880    -0.72700
H2915       H  0.54974434  0.56457577  0.61730885     0.79300
H2916       H  0.94774458  0.57010247  0.67108244     0.80300
H2917       H  0.93567677  0.96915907  0.61896029     0.82600
H2918       H  0.54950288  0.95902336  0.66882463     0.80200
H2919       H  0.94353609  0.63596877  0.65859072     0.43200
H2920       H  0.85724213  0.56290648  0.64869335     0.42200
H2921       H  0.86861080  0.96796103  0.64012180     0.41900
H2922       H  0.91666368  0.91741410  0.64433622     0.39800
H2923       H  0.55569040  0.89799312  0.65482875     0.42900
H2924       H  0.60099887  0.94248995  0.63614054     0.37700
H2925       H  0.60870898  0.57512745  0.64225862     0.43800
H2926       H  0.56522842  0.62564157  0.63705527     0.40200
H2927       H  0.93296970  0.90180067  0.62613252     0.45200
H2928       H  0.61275499  0.95246187  0.65609049     0.43900
H2929       H  0.53530387  0.65588491  0.63790128     0.44000
H2930       H  0.88823195  0.58548879  0.65726745     0.44400
O2931       O  0.98993106  0.61507522  0.32739666    -0.74500
O2932       O  0.98896542  0.57122477  0.30535484    -0.53400
C2933       C  0.98818420  0.60442122  0.31056741     0.79200
O2934       O  0.59415138  0.01093422  0.39069152    -0.59100
O2935       O  0.54838902  0.01491148  0.41157074    -0.52100
C2936       C  0.58063544  0.50945483  0.40668605     0.71200
O2937       O  0.59705007  0.01351962  0.32884180    -0.73700
O2938       O  0.55391633  0.01450823  0.30657905    -0.54200
C2939       C  0.58421075  0.51353427  0.31094654     0.77200
O2940       O  0.99383054  0.61404776  0.38994340    -0.58800
O2941       O  0.99562825  0.56854742  0.41060319    -0.51900
C2942       C  0.99508034  0.60181051  0.40656232     0.73800
Zr2943     Zr  0.99333955  0.58984527  0.35820144     2.54700
O2944       O  0.53798774  0.63482044  0.35621425    -0.79400
O2945       O  0.94575427  0.63512659  0.36057464    -0.92800
Zr2946     Zr  0.57023514  0.01525777  0.35923249     2.64700
O2947       O  0.60722096  0.56727697  0.36067208    -0.97700
O2948       O  0.61778407  0.96965602  0.35872748    -0.79800
O2949       O  0.53008797  0.55208514  0.34028025    -0.83200
O2950       O  0.53100331  0.55373592  0.37624368    -2.17900
O2951       O  0.89160428  0.52226908  0.38876557    -0.66500
O2952       O  0.93723903  0.51925209  0.40975725    -0.51100
C2953       C  0.90725167  0.02169088  0.40574628     0.72200
O2954       O  0.99395107  0.91387614  0.32717709    -0.59500
O2955       O  0.99732150  0.95714732  0.30517548    -0.51400
C2956       C  0.99649769  0.92412411  0.31035133     0.74000
O2957       O  0.99681600  0.91491959  0.38969955    -0.70900
O2958       O  0.99770693  0.96088166  0.41033686    -0.49500
C2959       C  0.99839046  0.92755710  0.40625752     0.75400
O2960       O  0.89089887  0.50834262  0.32795908    -0.66200
O2961       O  0.93399588  0.50825403  0.30560263    -0.53400
C2962       C  0.90284983  0.00958345  0.31169234     0.73800
Zr2963     Zr  0.91725529  0.51702437  0.35799039     2.77500
O2964       O  0.86900068  0.98071595  0.36099480    -0.96900
O2965       O  0.87634820  0.56796265  0.35376165    -0.77800
Zr2966     Zr  0.99112169  0.93910157  0.35817250     2.70100
O2967       O  0.93690990  0.90323398  0.35840519    -0.79000
O2968       O  0.54475462  0.89507155  0.35837560    -0.98100
Zr2969     Zr  0.99534535  0.01401401  0.32204415     2.21500
Zr2970     Zr  0.99590977  0.01451353  0.39269851     2.11100
O2971       O  0.95484427  0.97867721  0.37603482    -2.46800
O2972       O  0.95549543  0.97933858  0.34033957    -0.78800
O2973       O  0.95433438  0.55446754  0.37590059    -0.71000
O2974       O  0.53368958  0.97692724  0.34118403    -2.31900
O2975       O  0.95508655  0.55326945  0.33993020    -2.28200
O2976       O  0.53378706  0.97733529  0.37691022    -0.72700
H2977       H  0.54554571  0.56821648  0.38429458     0.79300
H2978       H  0.54905492  0.96198976  0.33355973     0.80300
H2979       H  0.93963218  0.96525738  0.38414059     0.82600
H2980       H  0.93990833  0.56790395  0.33212308     0.80200
H2981       H  0.64033811  0.98319509  0.36020027     0.43200
H2982       H  0.56380573  0.90502104  0.36632524     0.42200
H2983       H  0.92004806  0.91598271  0.35005229     0.41900
H2984       H  0.87347921  0.96627927  0.37216536     0.39800
H2985       H  0.87873482  0.58225579  0.36516411     0.42900
H2986       H  0.92549677  0.62497471  0.35354238     0.37700
H2987       H  0.52492987  0.65704952  0.35264366     0.43800
H2988       H  0.59066296  0.58813955  0.36198086     0.40200
H2989       H  0.84834813  0.99666050  0.36420315     0.45200
H2990       H  0.95422474  0.65540697  0.35310247     0.43900
H2991       H  0.61925400  0.56522627  0.37277259     0.44000
H2992       H  0.53531548  0.87433692  0.36518872     0.44400
N2993       N  0.51026775  0.76619615  0.52939500    -0.35800
N2994       N  0.50738752  0.71072016  0.50202191    -0.56400
N2995       N  0.51049847  0.76511134  0.47430884    -0.35800
N2996       N  0.51392415  0.82027942  0.50155518    -0.56400
C2997       C  0.49854934  0.73817476  0.53925250     0.27800
C2998       C  0.50172965  0.79605387  0.53902884     0.27800
C2999       C  0.49761259  0.73667631  0.46504180     0.27800
C3000       C  0.50104685  0.79456388  0.46463609     0.27800
C3001       C  0.51434440  0.69065328  0.51698961     0.36400
C3002       C  0.51489725  0.69011557  0.48720918     0.36400
C3003       C  0.52161185  0.84053133  0.51633770     0.36400
C3004       C  0.52155121  0.83998165  0.48663437     0.36400
C3005       C  0.48202405  0.75029204  0.55524632    -0.21100
C3006       C  0.48400189  0.78698057  0.55510092    -0.21100
C3007       C  0.47907725  0.74822276  0.44955917    -0.21100
C3008       C  0.48145381  0.78488110  0.44924481    -0.21100
C3009       C  0.52662369  0.65688754  0.51175384    -0.22200
C3010       C  0.52727392  0.65663228  0.49277320    -0.22200
C3011       C  0.53448060  0.87345808  0.51084381    -0.22200
C3012       C  0.53443564  0.87310502  0.49190285    -0.22200
C3013       C  0.50620258  0.70204490  0.53504228    -0.17500
C3014       C  0.51267154  0.83082065  0.53443428    -0.17500
C3015       C  0.51245275  0.82949944  0.46863015    -0.17500
C3016       C  0.50632432  0.70067555  0.46907255    -0.17500
H3017       H  0.47064725  0.73430292  0.56610635     0.15400
H3018       H  0.47433526  0.80486788  0.56582217     0.15400
H3019       H  0.46627381  0.73181974  0.43923448     0.15400
H3020       H  0.47066077  0.80236237  0.43870181     0.15400
H3021       H  0.53354271  0.63465433  0.52064279     0.13700
H3022       H  0.53464890  0.63407852  0.48409726     0.13700
H3023       H  0.54176062  0.89577972  0.51954067     0.13700
H3024       H  0.54165046  0.89508862  0.48306293     0.13700
H3025       H  0.52755362  0.76473651  0.51813185     0.27000
H3026       H  0.52902454  0.76408037  0.48507211     0.26900
N3027       N  0.74711009  0.00237580  0.52896954    -0.35800
N3028       N  0.80238109  0.01620372  0.50159508    -0.56400
N3029       N  0.74810986  0.00694765  0.47336598    -0.35800
N3030       N  0.69306397  0.99540094  0.50080682    -0.56400
C3031       C  0.77426666  0.01465226  0.53947717     0.27800
C3032       C  0.71672177  0.00547841  0.53915967     0.27800
C3033       C  0.77544973  0.02119962  0.46367025     0.27800
C3034       C  0.71787300  0.01096813  0.46313277     0.27800
C3035       C  0.82369308  0.01205469  0.51648626     0.36400
C3036       C  0.82424471  0.01473740  0.48677702     0.36400
C3037       C  0.67248742  0.98720921  0.51546439     0.36400
C3038       C  0.67322695  0.98857087  0.48568382     0.36400
C3039       C  0.76108693  0.02523756  0.55652581    -0.21100
C3040       C  0.72478689  0.01969186  0.55627640    -0.21100
C3041       C  0.76249333  0.03433495  0.44711380    -0.21100
C3042       C  0.72614603  0.02806496  0.44681231    -0.21100
C3043       C  0.85947401  0.00864717  0.51117948    -0.22200
C3044       C  0.85982260  0.01028984  0.49225439    -0.22200
C3045       C  0.63928584  0.97503935  0.50966485    -0.22200
C3046       C  0.63978417  0.97578868  0.49074741    -0.22200
C3047       C  0.81108323  0.01377935  0.53475174    -0.17500
C3048       C  0.68206453  0.99432147  0.53389009    -0.17500
C3049       C  0.68333651  0.99803615  0.46763216    -0.17500
C3050       C  0.81228569  0.01937486  0.46852872    -0.17500
H3051       H  0.77602611  0.03558491  0.56809736     0.15400
H3052       H  0.70651730  0.02512943  0.56757618     0.15400
H3053       H  0.77771468  0.04671687  0.43623766     0.15400
H3054       H  0.70799292  0.03486212  0.43567412     0.15400
H3055       H  0.88278845  0.00561765  0.52001557     0.13700
H3056       H  0.88347006  0.00878046  0.48355147     0.13700
H3057       H  0.61675206  0.96747063  0.51817731     0.13700
H3058       H  0.61762193  0.96902742  0.48177448     0.13700
H3059       H  0.75000395  0.98881816  0.51654569     0.27000
H3060       H  0.75082877  0.99134937  0.48509067     0.26900
C3061       C  0.99253379  0.79754494  0.26179226     0.87300
C3062       C  0.52613224  0.79128611  0.24992329    -0.53000
C3063       C  0.52685876  0.76005359  0.24036510     0.10200
C3064       C  0.99204648  0.73708494  0.24325990     0.21200
C3065       C  0.95917772  0.79283734  0.24934492    -0.53700
C3066       C  0.95819503  0.76138343  0.23963650     0.10300
C3067       C  0.99158952  0.76342034  0.27376095    -0.53200
C3068       C  0.99108948  0.73151903  0.26428777     0.10900
H3069       H  0.54767862  0.81059480  0.24903050     0.15400
H3070       H  0.99181986  0.71171089  0.23543303     0.01100
H3071       H  0.93656380  0.81131287  0.24915116     0.15700
H3072       H  0.99062157  0.76458897  0.28864844     0.15500
C3073       C  0.99911158  0.89494986  0.29623161    -0.04500
C3074       C  0.97773731  0.89555425  0.28020335    -0.01700
C3075       C  0.97770609  0.86571769  0.26809699     0.03300
C3076       C  0.99601949  0.83310578  0.27290038    -0.04500
C3077       C  0.52099189  0.83360761  0.28817682    -0.01600
C3078       C  0.52209975  0.86332804  0.30023609     0.03300
C3079       C  0.95508941  0.92661683  0.27620519     0.38000
C3080       C  0.54740478  0.80486850  0.29068471     0.38000
C3081       C  0.54843033  0.86301457  0.31497825     0.36400
C3082       C  0.96229496  0.87098373  0.24999505     0.36400
N3083       N  0.57018345  0.86169294  0.32635071    -0.38400
N3084       N  0.94997321  0.87575991  0.23558028    -0.38400
N3085       N  0.56870135  0.78224070  0.29269718    -0.37900
N3086       N  0.93688803  0.95121602  0.27290194    -0.37900
C3087       C  0.98470493  0.63341194  0.29649232    -0.04500
C3088       C  0.50902786  0.63442757  0.28128530    -0.01700
C3089       C  0.50890211  0.66490670  0.26963376     0.03300
C3090       C  0.98633743  0.69592265  0.27391263    -0.04500
C3091       C  0.96086693  0.69298578  0.28838682    -0.01600
C3092       C  0.95950984  0.66172913  0.29919128     0.03300
C3093       C  0.53569075  0.60607263  0.27851984     0.38000
C3094       C  0.93525484  0.72179863  0.29230021     0.38000
C3095       C  0.93092500  0.65842965  0.31267024     0.36400
C3096       C  0.53127039  0.66386382  0.25334503     0.36400
N3097       N  0.90722536  0.65660760  0.32293941    -0.38400
N3098       N  0.54839895  0.66144039  0.24009019    -0.38400
N3099       N  0.91500749  0.74453703  0.29607113    -0.37900
N3100       N  0.55716237  0.58364366  0.27629194    -0.37900
C3101       C  0.49612005  0.62858127  0.42239281    -0.04500
C3102       C  0.97815608  0.62060082  0.43904883    -0.01700
C3103       C  0.97751233  0.64628244  0.45326391     0.03300
C3104       C  0.50473748  0.67400805  0.45362054    -0.04500
C3105       C  0.52505152  0.67947362  0.43743407    -0.01600
C3106       C  0.51919776  0.65837147  0.42160639     0.03300
C3107       C  0.96196646  0.58622021  0.44258028     0.38000
C3108       C  0.55283647  0.70635983  0.43718839     0.38000
C3109       C  0.53896213  0.66631694  0.40495722     0.36400
C3110       C  0.95201840  0.64271344  0.46825677     0.36400
N3111       N  0.55490217  0.67323096  0.39181145    -0.38400
N3112       N  0.93121717  0.63979887  0.47998363    -0.38400
N3113       N  0.57531949  0.72744631  0.43694304    -0.37900
N3114       N  0.95025351  0.55854974  0.44610246    -0.37900
C3115       C  0.00151142  0.90257544  0.42209562    -0.04500
C3116       C  0.53239428  0.87555997  0.42318524    -0.01700
C3117       C  0.53576076  0.85276398  0.43854283     0.03300
C3118       C  0.51168354  0.85628844  0.45348140    -0.04500
C3119       C  0.98235903  0.88461016  0.45291541    -0.01600
C3120       C  0.98016813  0.90844832  0.43805762     0.03300
C3121       C  0.55768704  0.87128689  0.40813182     0.38000
C3122       C  0.95607033  0.88712080  0.46765193     0.38000
C3123       C  0.95721579  0.93996696  0.43994625     0.36400
C3124       C  0.56475998  0.82627017  0.43923966     0.36400
N3125       N  0.94010359  0.96571574  0.44229480    -0.38400
N3126       N  0.58829917  0.80560484  0.43981500    -0.38400
N3127       N  0.93479958  0.88883314  0.47925763    -0.37900
N3128       N  0.57853041  0.86695942  0.39647807    -0.37900
C3129       C  0.60771950  0.00814837  0.42274453    -0.04500
C3130       C  0.60379675  0.52928926  0.43750445    -0.01700
C3131       C  0.62735275  0.52530878  0.45251673     0.03300
C3132       C  0.65516774  0.99943257  0.45294917    -0.04500
C3133       C  0.65526810  0.97398706  0.43851714    -0.01600
C3134       C  0.63171998  0.97843345  0.42342397     0.03300
C3135       C  0.57774578  0.55860408  0.43775769     0.38000
C3136       C  0.67928381  0.94302491  0.43927462     0.38000
C3137       C  0.63124658  0.95182006  0.40885291     0.36400
C3138       C  0.62372062  0.54909105  0.46827028     0.36400
N3139       N  0.63048961  0.93089966  0.39709674    -0.38400
N3140       N  0.62044358  0.56795015  0.48083060    -0.38400
N3141       N  0.69812609  0.91804409  0.43973717    -0.37900
N3142       N  0.55753555  0.58244753  0.43841607    -0.37900
C3143       C  0.88112695  0.02192642  0.42098423    -0.04500
C3144       C  0.87270193  0.05402379  0.43040721    -0.01700
C3145       C  0.85200123  0.05316370  0.44665991     0.03300
C3146       C  0.83892293  0.02025681  0.45319411    -0.04500
C3147       C  0.84711170  0.98825912  0.44355999    -0.01600
C3148       C  0.86731558  0.98923584  0.42722031     0.03300
C3149       C  0.88422879  0.58843753  0.42301631     0.38000
C3150       C  0.83550849  0.95415497  0.45073392     0.38000
C3151       C  0.87413892  0.95652590  0.41684336     0.36400
C3152       C  0.84416038  0.08600425  0.45665625     0.36400
N3153       N  0.87957627  0.93045785  0.40857659    -0.38400
N3154       N  0.83816249  0.11227670  0.46465012    -0.38400
N3155       N  0.82682523  0.92680354  0.45652017    -0.37900
N3156       N  0.89448118  0.61504577  0.41700277    -0.37900
C3157       C  0.60301239  0.49946740  0.57741383    -0.04500
C3158       C  0.60179769  0.52478643  0.56297650    -0.01700
C3159       C  0.62574103  0.52174741  0.54801419     0.03300
C3160       C  0.65361959  0.99489526  0.54846093    -0.04500
C3161       C  0.65364379  0.96856211  0.56233924    -0.01600
C3162       C  0.63058676  0.97240523  0.57772408     0.03300
C3163       C  0.57679199  0.55493950  0.56359068     0.38000
C3164       C  0.67865611  0.93834345  0.56114886     0.38000
C3165       C  0.63157395  0.94540720  0.59196950     0.36400
C3166       C  0.62664082  0.54995970  0.53436406     0.36400
N3167       N  0.63309416  0.92363073  0.60321271    -0.38400
N3168       N  0.62731629  0.57285300  0.52371659    -0.38400
N3169       N  0.69882336  0.91442203  0.56027106    -0.37900
N3170       N  0.55698581  0.57913988  0.56351386    -0.37900
C3171       C  0.87470054  0.01981068  0.58371596    -0.04500
C3172       C  0.86554525  0.55035119  0.57448276    -0.01700
C3173       C  0.84457530  0.54968604  0.55831760     0.03300
C3174       C  0.83687852  0.01557552  0.55032418    -0.04500
C3175       C  0.84498958  0.98409353  0.56029531    -0.01600
C3176       C  0.86370267  0.98626560  0.57706107     0.03300
C3177       C  0.87576510  0.58428796  0.58253479     0.38000
C3178       C  0.83336861  0.94960012  0.55346967     0.38000
C3179       C  0.87155875  0.95411179  0.58756339     0.36400
C3180       C  0.83256690  0.58287518  0.54986032     0.36400
N3181       N  0.87766514  0.92858028  0.59604191    -0.38400
N3182       N  0.82246728  0.60916573  0.54309685    -0.38400
N3183       N  0.82399865  0.92208666  0.54807324    -0.37900
N3184       N  0.88394714  0.61133539  0.58898790    -0.37900
C3185       C  0.00311381  0.62805753  0.57977956    -0.04500
C3186       C  0.98068759  0.62341968  0.56412384    -0.01700
C3187       C  0.98062461  0.64867222  0.54983524     0.03300
C3188       C  0.50486978  0.67567849  0.55033382    -0.04500
C3189       C  0.53029727  0.67727125  0.56471969    -0.01600
C3190       C  0.52705659  0.65491077  0.58018030     0.03300
C3191       C  0.95935176  0.59155267  0.56178314     0.38000
C3192       C  0.56038321  0.70148387  0.56334779     0.38000
C3193       C  0.55414675  0.65661162  0.59448404     0.36400
C3194       C  0.95224158  0.64826919  0.53610868     0.36400
N3195       N  0.57647351  0.65846052  0.60552407    -0.38400
N3196       N  0.92922085  0.64855323  0.52537920    -0.38400
N3197       N  0.58447583  0.72062739  0.56213852    -0.37900
N3198       N  0.94363000  0.56550330  0.55922688    -0.37900
C3199       C  0.99748277  0.90627200  0.57946143    -0.04500
C3200       C  0.53058326  0.87696830  0.57993808    -0.01700
C3201       C  0.53556008  0.85502516  0.56433774     0.03300
C3202       C  0.00650065  0.85926142  0.54910434    -0.04500
C3203       C  0.97989817  0.88662582  0.54862590    -0.01600
C3204       C  0.97683946  0.91127272  0.56323494     0.03300
C3205       C  0.55353382  0.87138538  0.59584035     0.38000
C3206       C  0.95475239  0.88886782  0.53339117     0.38000
C3207       C  0.95328671  0.94233180  0.56103736     0.36400
C3208       C  0.56518522  0.82918232  0.56369131     0.36400
N3209       N  0.93560068  0.96769603  0.55871773    -0.38400
N3210       N  0.58907307  0.80889844  0.56306254    -0.38400
N3211       N  0.93429945  0.89079537  0.52142509    -0.37900
N3212       N  0.57189936  0.86625916  0.60843945    -0.37900
C3213       C  0.62019112  0.74762937  0.20492519    -0.04500
C3214       C  0.62021366  0.73166169  0.22254338    -0.01700
C3215       C  0.58980029  0.73586726  0.23423099     0.03300
C3216       C  0.55770348  0.75240382  0.22771174    -0.04500
C3217       C  0.55785406  0.76879541  0.21035153    -0.01600
C3218       C  0.58936755  0.76818505  0.19955306     0.03300
C3219       C  0.65099097  0.71048060  0.22864676     0.38000
C3220       C  0.52587008  0.78785538  0.20386154     0.38000
C3221       C  0.59066885  0.79169850  0.18377131     0.36400
C3222       C  0.59195849  0.72443590  0.25321108     0.36400
N3223       N  0.59090379  0.81165036  0.17166803    -0.38400
N3224       N  0.59347471  0.71538587  0.26838111    -0.38400
N3225       N  0.00719320  0.81426865  0.20031443    -0.37900
N3226       N  0.67536853  0.69332250  0.23356749    -0.37900
C3227       C  0.86417350  0.73574186  0.20534867    -0.04500
C3228       C  0.85927415  0.75138866  0.22291892    -0.01700
C3229       C  0.88938559  0.75764857  0.23453380     0.03300
C3230       C  0.92544050  0.75082188  0.22831074    -0.04500
C3231       C  0.92980749  0.73362434  0.21109826    -0.01600
C3232       C  0.89948700  0.72379765  0.20055546     0.03300
C3233       C  0.82324539  0.76069335  0.22935473     0.38000
C3234       C  0.96542409  0.72684985  0.20350615     0.38000
C3235       C  0.90491722  0.69824491  0.18574888     0.36400
C3236       C  0.88231227  0.77056063  0.25300326     0.36400
N3237       N  0.91053268  0.67671760  0.17460624    -0.38400
N3238       N  0.87538334  0.78129026  0.26753208    -0.38400
N3239       N  0.99342859  0.72095320  0.19706244    -0.37900
N3240       N  0.79449880  0.76770630  0.23458203    -0.37900
C3241       C  0.76146718  0.57726620  0.04992028    -0.04500
C3242       C  0.73558349  0.60520648  0.04931680    -0.01700
C3243       C  0.73248569  0.62951550  0.06403563     0.03300
C3244       C  0.75311560  0.62425723  0.08025899    -0.04500
C3245       C  0.77909157  0.59615562  0.08081089    -0.01600
C3246       C  0.78391540  0.57343342  0.06547338     0.03300
C3247       C  0.71175456  0.60881535  0.03357953     0.38000
C3248       C  0.80218045  0.59153748  0.09674553     0.38000
C3249       C  0.81291946  0.54696779  0.06545124     0.36400
C3250       C  0.70858105  0.66034212  0.06198925     0.36400
N3251       N  0.83669664  0.52655242  0.06556238    -0.38400
N3252       N  0.69031979  0.68531331  0.05971065    -0.38400
N3253       N  0.82060056  0.58762584  0.10943245    -0.37900
N3254       N  0.69264975  0.61190415  0.02110235    -0.37900
C3255       C  0.74527677  0.85046460  0.08065595    -0.04500
C3256       C  0.72432494  0.84564397  0.06451718    -0.01700
C3257       C  0.72393698  0.87176714  0.05059175     0.03300
C3258       C  0.74985501  0.89895629  0.05054490    -0.04500
C3259       C  0.77370223  0.90161189  0.06567598    -0.01600
C3260       C  0.77018674  0.87878967  0.08102320     0.03300
C3261       C  0.70644502  0.81218762  0.06089217     0.38000
C3262       C  0.80289300  0.92697009  0.06523566     0.38000
C3263       C  0.79523384  0.88225424  0.09619526     0.36400
C3264       C  0.69638513  0.87085880  0.03644766     0.36400
N3265       N  0.81602642  0.88546981  0.10790565    -0.38400
N3266       N  0.67427414  0.87044749  0.02523520    -0.38400
N3267       N  0.82656110  0.94675801  0.06503309    -0.37900
N3268       N  0.69394884  0.78494313  0.05713335    -0.37900
C3269       C  0.76249950  0.62964932  0.92408862    -0.04500
C3270       C  0.73632785  0.62761447  0.93814253    -0.01700
C3271       C  0.74201599  0.60521642  0.95344757     0.03300
C3272       C  0.77413456  0.58473339  0.95500008    -0.04500
C3273       C  0.80103845  0.58775858  0.94137181    -0.01600
C3274       C  0.79519885  0.61004048  0.92594655     0.03300
C3275       C  0.70240524  0.64688655  0.93646583     0.38000
C3276       C  0.83436068  0.56721964  0.94303619     0.38000
C3277       C  0.82287147  0.61280896  0.91199361     0.36400
C3278       C  0.71379227  0.60160301  0.96710784     0.36400
N3279       N  0.84484052  0.61483805  0.90078211    -0.38400
N3280       N  0.69119931  0.59859251  0.97792711    -0.38400
N3281       N  0.86099698  0.55085900  0.94432008    -0.37900
N3282       N  0.67483953  0.66155934  0.93549453    -0.37900
C3283       C  0.75228022  0.89678779  0.95336975    -0.04500
C3284       C  0.78375390  0.89079425  0.94280540    -0.01700
C3285       C  0.78224225  0.86997177  0.92671746     0.03300
C3286       C  0.74910842  0.85593375  0.92093701    -0.04500
C3287       C  0.71736688  0.86312213  0.93101893    -0.01600
C3288       C  0.71915132  0.88250184  0.94759629     0.03300
C3289       C  0.81762592  0.90637959  0.94838060     0.38000
C3290       C  0.68284576  0.85153953  0.92395576     0.38000
C3291       C  0.68691596  0.88843205  0.95853873     0.36400
C3292       C  0.81494811  0.86188914  0.91643772     0.36400
N3293       N  0.66127828  0.89294660  0.96736395    -0.38400
N3294       N  0.84101741  0.85508286  0.90832211    -0.38400
N3295       N  0.65537402  0.84245041  0.91818912    -0.37900
N3296       N  0.84474856  0.91882375  0.95265704    -0.37900
C3297       C  0.01086093  0.63222996  0.70617228    -0.04500
C3298       C  0.98911778  0.63351368  0.72210831    -0.01700
C3299       C  0.98473899  0.66596959  0.73212245     0.03300
C3300       C  0.00486356  0.69652693  0.72731533    -0.04500
C3301       C  0.53758356  0.69031014  0.71429308    -0.01600
C3302       C  0.53965934  0.65905939  0.70333422     0.03300
C3303       C  0.97314348  0.60098144  0.72883626     0.38000
C3304       C  0.56405906  0.71807854  0.71165436     0.38000
C3305       C  0.56718433  0.65588249  0.68921554     0.36400
C3306       C  0.95812370  0.66801102  0.74668065     0.36400
N3307       N  0.58960737  0.65346226  0.67820157    -0.38400
N3308       N  0.93667822  0.66921310  0.75822595    -0.38400
N3309       N  0.58540400  0.74000576  0.70969593    -0.37900
N3310       N  0.96187565  0.57445924  0.73444537    -0.37900
C3311       C  0.98959105  0.83333828  0.72795352    -0.04500
C3312       C  0.51038060  0.86336535  0.73369802    -0.01700
C3313       C  0.51078044  0.89289158  0.72150514     0.03300
C3314       C  0.98629863  0.89601486  0.70497094    -0.04500
C3315       C  0.96534273  0.86558599  0.70090130    -0.01600
C3316       C  0.96709161  0.83467998  0.71206612     0.03300
C3317       C  0.52223473  0.86945745  0.75240062     0.38000
C3318       C  0.94056249  0.86601636  0.68544720     0.38000
C3319       C  0.94464231  0.80477535  0.70691992     0.36400
C3320       C  0.53311259  0.92326716  0.72587329     0.36400
N3321       N  0.92714370  0.78118208  0.70205026    -0.38400
N3322       N  0.55132249  0.94717372  0.72942800    -0.38400
N3323       N  0.92049798  0.86552252  0.67329012    -0.37900
N3324       N  0.53143266  0.87523825  0.76729940    -0.37900
C3325       C  0.56384155  0.75440278  0.77637135    -0.04500
C3326       C  0.59052948  0.72730663  0.77356551    -0.01700
C3327       C  0.62164506  0.72530274  0.78497866     0.03300
C3328       C  0.62671249  0.75049725  0.79926037    -0.04500
C3329       C  0.59954065  0.77711930  0.80223078    -0.01600
C3330       C  0.56815118  0.77840015  0.79122346     0.03300
C3331       C  0.58607864  0.70061468  0.75934572     0.38000
C3332       C  0.60420060  0.80425008  0.81632871     0.38000
C3333       C  0.53892701  0.80308349  0.79594826     0.36400
C3334       C  0.64758728  0.69618152  0.78254183     0.36400
N3335       N  0.51512610  0.82197121  0.79993559    -0.38400
N3336       N  0.66803667  0.67273636  0.78060273    -0.38400
N3337       N  0.60788217  0.82629029  0.82735850    -0.37900
N3338       N  0.58387243  0.67807868  0.74848305    -0.37900
C3339       C  0.87251569  0.73931325  0.79859280    -0.04500
C3340       C  0.90861610  0.72979733  0.80369492    -0.01700
C3341       C  0.93814885  0.73659850  0.79188198     0.03300
C3342       C  0.93238373  0.75001069  0.77399874    -0.04500
C3343       C  0.89608339  0.75505328  0.76806815    -0.01600
C3344       C  0.86673475  0.75153526  0.78041907     0.03300
C3345       C  0.91618845  0.71216725  0.82103134     0.38000
C3346       C  0.88827516  0.76278432  0.74897883     0.38000
C3347       C  0.83083479  0.76206937  0.77436286     0.36400
C3348       C  0.97452338  0.73056666  0.79864323     0.36400
N3349       N  0.80234513  0.77072800  0.76943309    -0.38400
N3350       N  0.00319204  0.72530870  0.80440881    -0.38400
N3351       N  0.88112254  0.76871002  0.73382170    -0.37900
N3352       N  0.92332303  0.69794841  0.83467630    -0.37900
C3353       C  0.81524394  0.49891157  0.72850122    -0.04500
C3354       C  0.83923625  0.52723353  0.73197669    -0.01700
C3355       C  0.86770394  0.53440940  0.71958607     0.03300
C3356       C  0.87666980  0.00368108  0.70611154    -0.04500
C3357       C  0.85331236  0.97455136  0.70299149    -0.01600
C3358       C  0.82209394  0.97021927  0.71387266     0.03300
C3359       C  0.83883805  0.54516959  0.74962879     0.38000
C3360       C  0.86084753  0.94927516  0.68824498     0.38000
C3361       C  0.79786414  0.94098930  0.70997420     0.36400
C3362       C  0.88291840  0.56979944  0.71947772     0.36400
N3363       N  0.77832859  0.91779332  0.70705999    -0.38400
N3364       N  0.89300714  0.59894548  0.71917656    -0.38400
N3365       N  0.86659214  0.92915543  0.67643694    -0.37900
N3366       N  0.84009194  0.55871467  0.76394240    -0.37900
C3367       C  0.68525368  0.50122258  0.72655110    -0.04500
C3368       C  0.64924683  0.00735062  0.73360506    -0.01700
C3369       C  0.61986923  0.01409279  0.72153546     0.03300
C3370       C  0.62465570  0.50964347  0.70181619    -0.04500
C3371       C  0.66096287  0.50514235  0.69519699    -0.01600
C3372       C  0.69066954  0.50280827  0.70746673     0.03300
C3373       C  0.64219102  0.00583308  0.75310594     0.38000
C3374       C  0.66898572  0.50152444  0.67574820     0.38000
C3375       C  0.72703243  0.50130697  0.70017019     0.36400
C3376       C  0.58542359  0.02558530  0.72917765     0.36400
N3377       N  0.75556635  0.50093940  0.69376614    -0.38400
N3378       N  0.55812433  0.03522177  0.73529430    -0.38400
N3379       N  0.67632657  0.49834615  0.66036721    -0.37900
N3380       N  0.63468847  0.00434854  0.76848469    -0.37900
C3381       C  0.73800889  0.62052127  0.79787948    -0.04500
C3382       C  0.71485109  0.59170277  0.80123747    -0.01700
C3383       C  0.71653054  0.56054899  0.79018440     0.03300
C3384       C  0.73944069  0.55863101  0.77444913    -0.04500
C3385       C  0.75622127  0.59098285  0.76898436    -0.01600
C3386       C  0.75722922  0.62083074  0.78112412     0.03300
C3387       C  0.68748292  0.59480786  0.81544491     0.38000
C3388       C  0.77142311  0.59520299  0.75083840     0.38000
C3389       C  0.77883415  0.65154353  0.77644257     0.36400
C3390       C  0.69391567  0.53085172  0.79530909     0.36400
N3391       N  0.79604443  0.67603878  0.77270740    -0.38400
N3392       N  0.67814445  0.00762338  0.80043790    -0.38400
N3393       N  0.78320170  0.60026500  0.73636411    -0.37900
N3394       N  0.66474301  0.59695288  0.82629278    -0.37900
C3395       C  0.74742137  0.92036615  0.77502413    -0.04500
C3396       C  0.71720571  0.89769046  0.77761730    -0.01700
C3397       C  0.72105692  0.86477686  0.78702766     0.03300
C3398       C  0.75329528  0.85578378  0.79617998    -0.04500
C3399       C  0.78277981  0.87887864  0.79477054    -0.01600
C3400       C  0.77962053  0.91130442  0.78487746     0.03300
C3401       C  0.68068495  0.90986958  0.77385465     0.38000
C3402       C  0.81680302  0.86906257  0.80339116     0.38000
C3403       C  0.80878783  0.93666402  0.78630169     0.36400
C3404       C  0.69085881  0.84071389  0.78795725     0.36400
N3405       N  0.83172140  0.95716686  0.78762954    -0.38400
N3406       N  0.66661959  0.82168245  0.78827125    -0.38400
N3407       N  0.84424312  0.86137608  0.80997258    -0.37900
N3408       N  0.65107986  0.91879470  0.77128905    -0.37900
C3409       C  0.58695799  0.71680397  0.04964321    -0.04500
C3410       C  0.59449922  0.68766827  0.06137465    -0.01700
C3411       C  0.61447220  0.69304667  0.07756639     0.03300
C3412       C  0.62724763  0.72744324  0.08185106    -0.04500
C3413       C  0.61778500  0.75687181  0.07076705    -0.01600
C3414       C  0.59891424  0.75138745  0.05428543     0.03300
C3415       C  0.58105450  0.65244044  0.05691858     0.38000
C3416       C  0.62484733  0.79293604  0.07714237     0.38000
C3417       C  0.59010158  0.78151638  0.04249970     0.36400
C3418       C  0.62102311  0.66358012  0.09012160     0.36400
N3419       N  0.58293008  0.80537146  0.03301235    -0.38400
N3420       N  0.62582987  0.64037134  0.10036181    -0.38400
N3421       N  0.63011983  0.82170549  0.08234336    -0.37900
N3422       N  0.57031218  0.62435172  0.05332068    -0.37900
C3423       C  0.90449401  0.71961085  0.05069481    -0.04500
C3424       C  0.88325187  0.75102845  0.05269777    -0.01700
C3425       C  0.85862905  0.75437203  0.06735968     0.03300
C3426       C  0.85652324  0.72725391  0.08077805    -0.04500
C3427       C  0.87838422  0.69606467  0.07896180    -0.01600
C3428       C  0.90172881  0.69195481  0.06374614     0.03300
C3429       C  0.88798411  0.78065288  0.04012596     0.38000
C3430       C  0.87669865  0.66803593  0.09262151     0.38000
C3431       C  0.92331785  0.65948741  0.06150966     0.36400
C3432       C  0.83617275  0.78631380  0.06879628     0.36400
N3433       N  0.94069007  0.63374133  0.05952921    -0.38400
N3434       N  0.81840016  0.81197179  0.06958384    -0.38400
N3435       N  0.87577516  0.64571970  0.10357385    -0.37900
N3436       N  0.89203959  0.80438046  0.03020536    -0.37900
C3437       C  0.58946114  0.71983833  0.95407781    -0.04500
C3438       C  0.58635201  0.69901451  0.93790996    -0.01700
C3439       C  0.60909544  0.70513524  0.92272749     0.03300
C3440       C  0.63703430  0.73045356  0.92398565    -0.04500
C3441       C  0.64215446  0.74874286  0.94095537    -0.01600
C3442       C  0.61699099  0.74530197  0.95533740     0.03300
C3443       C  0.55949182  0.67124629  0.93690844     0.38000
C3444       C  0.67405777  0.76973717  0.94428887     0.38000
C3445       C  0.61840946  0.76917547  0.97111417     0.36400
C3446       C  0.60558400  0.68298294  0.90642559     0.36400
N3447       N  0.61895100  0.78827651  0.98367021    -0.38400
N3448       N  0.60287090  0.66501754  0.89352631    -0.38400
N3449       N  0.69999776  0.78535211  0.94754400    -0.37900
N3450       N  0.53800257  0.64917251  0.93616974    -0.37900
C3451       C  0.90725553  0.73011744  0.95502519    -0.04500
C3452       C  0.91136932  0.70678560  0.93988012    -0.01700
C3453       C  0.89021088  0.71182655  0.92401767     0.03300
C3454       C  0.86188761  0.73769485  0.92398588    -0.04500
C3455       C  0.85583157  0.75876275  0.94006685    -0.01600
C3456       C  0.88012114  0.75676533  0.95487755     0.03300
C3457       C  0.93683623  0.67695614  0.94088312     0.38000
C3458       C  0.82382329  0.78110664  0.94217546     0.38000
C3459       C  0.87780988  0.78258867  0.96983315     0.36400
C3460       C  0.89708292  0.68927957  0.90810876     0.36400
N3461       N  0.87660146  0.80319259  0.98174720    -0.38400
N3462       N  0.90348426  0.67128498  0.89551555    -0.38400
N3463       N  0.79783221  0.79787026  0.94478763    -0.37900
N3464       N  0.95663314  0.65278882  0.94186574    -0.37900
C3465       C  0.80765359  0.49416292  0.27497311    -0.04500
C3466       C  0.83938633  0.01734544  0.26988993    -0.01700
C3467       C  0.86923759  0.02290805  0.28174939     0.03300
C3468       C  0.87250571  0.00354655  0.29832254    -0.04500
C3469       C  0.84209056  0.47646109  0.30235156    -0.01600
C3470       C  0.81054526  0.47466265  0.29148275     0.03300
C3471       C  0.84113567  0.02952037  0.25106095     0.38000
C3472       C  0.84607831  0.45207321  0.31770715     0.38000
C3473       C  0.78179767  0.45072628  0.29667404     0.36400
C3474       C  0.89611485  0.04905262  0.27704515     0.36400
N3475       N  0.75888736  0.43152349  0.30060086    -0.38400
N3476       N  0.91743489  0.07024155  0.27351704    -0.38400
N3477       N  0.84901137  0.43185506  0.32963641    -0.37900
N3478       N  0.84290546  0.03848651  0.23589340    -0.37900
C3479       C  0.61450445  0.51211102  0.29692120    -0.04500
C3480       C  0.61339713  0.99547478  0.28049483    -0.01700
C3481       C  0.64318665  0.99113590  0.26835337     0.03300
C3482       C  0.67602997  0.49868667  0.27338888    -0.04500
C3483       C  0.68002085  0.51526030  0.29078424    -0.01600
C3484       C  0.64953900  0.52390392  0.30177493     0.03300
C3485       C  0.57858512  0.98165418  0.27508167     0.38000
C3486       C  0.71553152  0.52216460  0.29818771     0.38000
C3487       C  0.65462839  0.54632535  0.31787339     0.36400
C3488       C  0.63608482  0.97954879  0.24968625     0.36400
N3489       N  0.65917090  0.56461512  0.33050105    -0.38400
N3490       N  0.62950298  0.97025005  0.23489818    -0.38400
N3491       N  0.74346015  0.52810521  0.30448656    -0.37900
N3492       N  0.55095775  0.97036972  0.27074572    -0.37900
C3493       C  0.73723213  0.55378389  0.22820049    -0.04500
C3494       C  0.75739174  0.58465309  0.23291484    -0.01700
C3495       C  0.75653507  0.61542197  0.22146398     0.03300
C3496       C  0.73448377  0.61642859  0.20564277    -0.04500
C3497       C  0.71082377  0.58779372  0.20244340    -0.01600
C3498       C  0.71195829  0.55704032  0.21364031     0.03300
C3499       C  0.77872474  0.58588103  0.24954000     0.38000
C3500       C  0.68468446  0.58987245  0.18761473     0.38000
C3501       C  0.68598458  0.52919845  0.21021355     0.36400
C3502       C  0.77960654  0.64546484  0.22554443     0.36400
N3503       N  0.66511389  0.50740991  0.20694589    -0.38400
N3504       N  0.79790283  0.66953936  0.22869818    -0.38400
N3505       N  0.66361195  0.59099338  0.17590484    -0.37900
N3506       N  0.79536556  0.58860907  0.26291151    -0.37900
C3507       C  0.75178853  0.85338104  0.20681737    -0.04500
C3508       C  0.77665725  0.88106590  0.20388941    -0.01700
C3509       C  0.77604255  0.91215227  0.21506096     0.03300
C3510       C  0.75125406  0.91561092  0.22991912    -0.04500
C3511       C  0.73355641  0.88373533  0.23539375    -0.01600
C3512       C  0.73148329  0.85405263  0.22324536     0.03300
C3513       C  0.80461909  0.87652856  0.19008552     0.38000
C3514       C  0.72226005  0.87882475  0.25427351     0.38000
C3515       C  0.70820978  0.82451424  0.22776910     0.36400
C3516       C  0.80226890  0.93974419  0.21156622     0.36400
N3517       N  0.68947393  0.80116128  0.23151823    -0.38400
N3518       N  0.82310784  0.96176277  0.20868779    -0.38400
N3519       N  0.71375723  0.87455569  0.26940057    -0.37900
N3520       N  0.82750264  0.87270961  0.17941640    -0.37900
loop_ 
_geom_bond_atom_site_label_1 
_geom_bond_atom_site_label_2 
_geom_bond_distance 
_geom_bond_site_symmetry_2 
_ccdc_geom_bond_type 
C1            C2   1.518       .  S
C1            C7   1.546       .  S
C1            C5   1.549       .  S
C1          C870   1.557       .  S
C2            H9   1.087       .  S
C2          C883   1.355       .  D
C3            C4   1.565   1_565  S
C3          C882   1.357       .  D
C3          C825   1.506       .  S
C4            C8   1.548       .  S
C4            C6   1.559   1_545  S
C4           H10   1.103       .  S
C5           H11   1.078       .  S
C5          C886   1.373       .  D
C6          C885   1.372       .  D
C6          C842   1.527       .  S
C7          H892   1.085       .  S
C7          C888   1.373       .  D
C8          C887   1.376   1_545  D
C8          C853   1.523       .  S
H12         C887   1.085       .  S
N13          H45   1.042       .  S
N13          C17   1.347       .  A
N13        C1778   1.348       .  A
N14          C21   1.347   1_554  A
N14          C22   1.346       .  A
N15          H46   1.041       .  S
N15          C19   1.352       .  A
N15        C1780   1.350       .  A
N16          C23   1.348   1_554  A
N16          C24   1.345       .  A
C17          C25   1.387       .  A
C17          C33   1.405       .  A
C18        N1773   1.348   1_455  A
C18          C34   1.402       .  A
C18          C26   1.386       .  A
C19          C27   1.386       .  A
C19          C36   1.411       .  A
C20        N1775   1.349   1_455  A
C20          C35   1.408       .  A
C20          C28   1.387       .  A
C21          C33   1.409       .  A
C21          C29   1.386       .  A
C22          C36   1.407       .  A
C22          C30   1.386       .  A
C23          C31   1.386       .  A
C23          C34   1.409       .  A
C24          C32   1.386       .  A
C24          C35   1.406       .  A
C25        C1786   1.372       .  A
C25          H37   1.082       .  S
C26        C1785   1.371   1_455  A
C26          H38   1.083       .  S
C27        C1788   1.371       .  A
C27          H39   1.082       .  S
C28        C1787   1.371   1_455  A
C28          H40   1.082       .  S
C29          C30   1.380   1_556  A
C29          H41   1.082       .  S
C30          H42   1.082       .  S
C31          C32   1.379   1_556  A
C31          H43   1.082       .  S
C32          H44   1.082       .  S
C33         C811   1.487       .  S
C34         C797   1.489       .  S
C35         C769   1.479       .  S
C36         C783   1.490       .  S
C47          C48   1.550       .  S
C47          C53   1.538       .  S
C47          C51   1.527       .  S
C47         C755   1.563       .  S
C48          H55   1.078       .  S
C48         C929   1.360       .  D
C49          C50   1.546   1_565  S
C49         C928   1.359       .  D
C49         C727   1.505   1_565  S
C50          C54   1.556       .  S
C50          C52   1.569   1_545  S
C50          H56   1.103       .  S
C51          H57   1.086       .  S
C51         C932   1.361       .  D
C52         C931   1.359       .  D
C52         C713   1.504       .  S
C53         H938   1.085       .  S
C53         C934   1.378       .  D
C54         C933   1.374   1_545  D
C54         C744   1.529       .  S
H58         C933   1.084       .  S
C59          C65   1.545   1_655  S
C59          C63   1.545   1_655  S
C59        C1820   1.530       .  S
C59        C2431   1.563       .  S
C60        C1819   1.530       .  S
C60          H67   1.086       .  S
C60          C61   1.367       .  D
C61        C1822   1.564       .  S
C61         C702   1.522       .  S
C62          C66   1.548       .  S
C62          C64   1.554       .  S
C62        C1821   1.562   1_455  S
C62          H68   1.108       .  S
C63          H69   1.083       .  S
C63          C64   1.368       .  D
C64         C685   1.514       .  S
C65          H70   1.085       .  S
C65          C66   1.371       .  D
C66        C2420   1.512       .  S
N71         H103   1.041       .  S
N71          C76   1.349   1_565  A
N71         C955   1.353       .  A
N72          C79   1.352   1_556  A
N72          C80   1.346       .  A
N73         H104   1.041       .  S
N73          C78   1.353   1_565  A
N73         C957   1.347       .  A
N74          C81   1.344       .  A
N74          C82   1.349   1_554  A
C75         N951   1.353       .  A
C75          C83   1.385       .  A
C75          C91   1.410       .  A
C76          C92   1.413       .  A
C76          C84   1.389       .  A
C77         N953   1.347       .  A
C77          C85   1.390       .  A
C77          C94   1.410       .  A
C78          C93   1.409       .  A
C78          C86   1.385       .  A
C79          C91   1.413       .  A
C79          C87   1.385       .  A
C80          C94   1.409       .  A
C80          C88   1.387       .  A
C81          C89   1.388       .  A
C81          C92   1.410       .  A
C82          C90   1.384       .  A
C82          C93   1.407       .  A
C83         C964   1.374       .  A
C83          H95   1.082       .  S
C84         C963   1.374   1_545  A
C84          H96   1.082       .  S
C85         C966   1.372       .  A
C85          H97   1.082       .  S
C86         C965   1.373   1_545  A
C86          H98   1.082       .  S
C87          C88   1.378   1_554  A
C87          H99   1.082       .  S
C88         H100   1.082       .  S
C89          C90   1.378   1_554  A
C89         H101   1.082       .  S
C90         H102   1.082       .  S
C91         C618   1.506       .  S
C92         C601   1.484       .  S
C93         C632   1.495       .  S
C94         C643   1.478       .  S
O105       Zr117   2.467       .  S
O105        C107   1.293       .  A
O106       Zr143   2.387       .  S
O106        C107   1.279       .  A
C107        C814   1.488       .  S
O108       Zr120   2.428       .  S
O108        C110   1.286       .  A
O109       Zr144   2.451       .  S
O109        C110   1.291       .  A
C110        C758   1.488       .  S
O111       Zr120   2.428       .  S
O111        C113   1.283       .  A
O112       Zr143   2.408       .  S
O112        C113   1.283       .  A
C113        C646   1.463       .  S
O114       Zr117   2.407       .  S
O114        C116   1.281       .  A
O115       Zr144   2.499       .  S
O115        C116   1.303       .  A
C116        C699   1.522       .  S
Zr117       O118   2.434       .  S
Zr117       O119   2.434       .  S
Zr117       O123   2.356       .  S
Zr117       O124   2.383       .  S
Zr117       O147   2.385       .  S
Zr117       O149   2.350       .  S
O118        H161   0.990       .  S
O119        H160   0.990       .  S
O119        H164   0.989       .  S
Zr120       O121   2.436       .  S
Zr120       O122   2.434       .  S
Zr120       O124   2.364       .  S
Zr120       O123   2.371       .  S
Zr120       O148   2.369       .  S
Zr120       O150   2.367       .  S
O121        H162   0.990       .  S
O121        H165   0.990       .  S
O122        H155   0.990       .  S
O123       Zr143   2.372       .  S
O124       Zr144   2.397       .  S
O124        H151   0.966       .  S
O125       Zr137   2.455       .  S
O125        C127   1.292       .  A
O126       Zr144   2.438       .  S
O126        C127   1.290       .  A
C127        C741   1.499       .  S
O128       Zr140   2.451       .  S
O128        C130   1.290       .  A
O129       Zr143   2.387       .  S
O129        C130   1.279       .  A
C130        C800   1.483       .  S
O131       Zr140   2.411       .  S
O131        C133   1.282       .  A
O132       Zr144   2.488       .  S
O132        C133   1.299       .  A
C133        C688   1.501       .  S
O134       Zr137   2.477       .  S
O134        C136   1.294       .  A
O135       Zr143   2.411       .  S
O135        C136   1.284       .  A
C136        C629   1.489       .  S
Zr137       O138   2.434       .  S
Zr137       O139   2.434       .  S
Zr137       O145   2.382       .  S
Zr137       O146   2.374       .  S
Zr137       O149   2.366       .  S
Zr137       O147   2.382       .  S
O138        H158   0.990       .  S
O138        H163   0.990       .  S
O139        H159   0.990       .  S
Zr140       O141   2.432       .  S
Zr140       O142   2.436       .  S
Zr140       O146   2.367       .  S
Zr140       O145   2.379       .  S
Zr140       O150   2.377       .  S
Zr140       O148   2.358       .  S
O141        H157   0.990       .  S
O142        H156   0.990       .  S
O142        H166   0.990       .  S
Zr143       O146   2.374       .  S
Zr143       O148   2.372       .  S
Zr143       O149   2.367       .  S
Zr144       O145   2.403       .  S
Zr144       O147   2.398       .  S
Zr144       O150   2.388       .  S
O145        H153   0.964       .  S
O148        H152   0.967       .  S
O149        H154   0.965       .  S
O167       Zr179   2.427       .  S
O167        C169   1.285       .  A
O168       Zr205   2.481       .  S
O168        C169   1.298       .  A
C169        C587   1.523       .  S
O170       Zr182   2.488       .  S
O170        C172   1.297       .  A
O171       Zr206   2.398       .  S
O171        C172   1.281       .  A
C172        C615   1.505       .  S
O173       Zr182   2.444       .  S
O173        C175   1.289       .  A
O174       Zr205   2.448       .  S
O174        C175   1.292       .  A
C175        C867   1.501       .  S
O176       Zr179   2.458       .  S
O176        C178   1.290       .  A
O177       Zr206   2.408       .  S
O177        C178   1.283       .  A
C178        C786   1.483       .  S
Zr179       O180   2.435       .  S
Zr179       O181   2.437       .  S
Zr179       O185   2.387       .  S
Zr179       O186   2.374       .  S
Zr179       O209   2.350       .  S
Zr179       O211   2.375       .  S
O180        H223   0.990       .  S
O181        H222   0.989       .  S
O181        H226   0.990       .  S
Zr182       O183   2.426       .  S
Zr182       O184   2.435       .  S
Zr182       O186   2.368       .  S
Zr182       O185   2.384       .  S
Zr182       O210   2.382       .  S
Zr182       O212   2.364       .  S
O183        H224   0.989       .  S
O183        H227   0.990       .  S
O184        H217   0.990       .  S
O185       Zr205   2.398       .  S
O186       Zr206   2.374       .  S
O186        H213   0.963       .  S
O187       Zr199   2.469       .  S
O187        C189   1.294       .  A
O188       Zr206   2.384       .  S
O188        C189   1.279       .  A
C189        C604   1.483       .  S
O190       Zr202   2.411       .  S
O190        C192   1.282       .  A
O191       Zr205   2.484       .  S
O191        C192   1.298       .  A
C192        C573   1.507       .  S
O193       Zr202   2.424       .  S
O193        C195   1.283       .  A
O194       Zr206   2.411       .  S
O194        C195   1.283       .  A
C195        C772   1.461       .  S
O196       Zr199   2.442       .  S
O196        C198   1.289       .  A
O197       Zr205   2.455       .  S
O197        C198   1.293       .  A
C198        C856   1.503       .  S
Zr199       O200   2.436       .  S
Zr199       O201   2.433       .  S
Zr199       O207   2.361       .  S
Zr199       O208   2.374       .  S
Zr199       O211   2.380       .  S
Zr199       O209   2.369       .  S
O200        H220   0.990       .  S
O200        H225   0.990       .  S
O201        H221   0.990       .  S
Zr202       O203   2.436       .  S
Zr202       O204   2.433       .  S
Zr202       O208   2.371       .  S
Zr202       O207   2.364       .  S
Zr202       O212   2.369       .  S
Zr202       O210   2.376       .  S
O203        H219   0.990       .  S
O204        H218   0.990       .  S
O204        H228   0.990       .  S
Zr205       O208   2.391       .  S
Zr205       O210   2.400       .  S
Zr205       O211   2.398       .  S
Zr206       O207   2.379       .  S
Zr206       O209   2.372       .  S
Zr206       O212   2.368       .  S
O207        H215   0.965       .  S
O210        H214   0.965       .  S
O211        H216   0.963       .  S
O229       Zr241   2.397       .  S
O229        C231   1.277       .  A
O230      Zr2027   2.491   1_455  S
O230        C231   1.300       .  A
C231        C730   1.526       .  S
O232       Zr244   2.490       .  S
O232        C234   1.297       .  A
O233       Zr268   2.385       .  S
O233        C234   1.279       .  A
C234        C545   1.495       .  S
O235       Zr244   2.453       .  S
O235        C237   1.292       .  A
O236       Zr267   2.448       .  S
O236        C237   1.291       .  A
C237        C657   1.505       .  S
O238       Zr241   2.451       .  S
O238        C240   1.289       .  A
O239      Zr2028   2.420   1_455  S
O239        C240   1.285       .  A
C240        C517   1.491   1_545  S
Zr241       O242   2.432       .  S
Zr241      O1123   2.438   1_545  S
Zr241       O247   2.376       .  S
Zr241       O248   2.358       .  S
Zr241      O1151   2.347   1_545  S
Zr241      O1153   2.379   1_545  S
O242        H285   0.990       .  S
O243      Zr1121   2.435       .  S
O243        H284   0.990       .  S
O243        H288   0.990       .  S
Zr244       O246   2.435       .  S
Zr244      O2005   2.430       .  S
Zr244       O272   2.381       .  S
Zr244       O274   2.365       .  S
Zr244      O2008   2.378       .  S
Zr244      O2007   2.381       .  S
O245      Zr2004   2.431   1_455  S
O245        H286   0.989       .  S
O245        H289   0.990       .  S
O246        H279   0.990       .  S
O247      Zr2004   2.379   1_455  S
O247      Zr2027   2.394   1_455  S
O248      Zr2004   2.376   1_455  S
O248      Zr2028   2.372   1_455  S
O248        H275   0.966       .  S
O249       Zr261   2.458       .  S
O249        C251   1.291       .  A
O250      Zr1148   2.392       .  S
O250        C251   1.280       .  A
C251        C559   1.487       .  S
O252       Zr264   2.418       .  S
O252       C1134   1.284       .  A
O253       Zr267   2.493       .  S
O253       C1134   1.300       .  A
C254        C716   1.505       .  S
C254       O1132   1.284       .  A
C254       O1133   1.301       .  A
O255       Zr264   2.448       .  S
O255       C1137   1.287       .  A
O256       Zr268   2.414       .  S
O256       C1137   1.284       .  A
C257        C531   1.484       .  S
C257       O1135   1.289       .  A
C257       O1136   1.285       .  A
O258       Zr261   2.439       .  S
O258        C260   1.287       .  A
O259      Zr1147   2.456       .  S
O259        C260   1.293       .  A
C260        C674   1.511       .  S
Zr261       O262   2.434       .  S
Zr261      O2023   2.433       .  S
Zr261       O269   2.370       .  S
Zr261       O270   2.373       .  S
Zr261      O2033   2.377       .  S
Zr261      O2031   2.362       .  S
O262        H282   0.988       .  S
O262        H287   0.990       .  S
O263      Zr2021   2.434   1_455  S
O263        H283   0.990       .  S
Zr264       O266   2.435       .  S
Zr264      O1145   2.433   1_545  S
Zr264       O274   2.365       .  S
Zr264       O272   2.382       .  S
Zr264      O1150   2.382   1_545  S
Zr264      O1149   2.370   1_545  S
O265      Zr1144   2.434       .  S
O265        H281   0.989       .  S
O266        H280   0.990       .  S
O266        H290   0.990       .  S
Zr267      O1990   2.499       .  S
Zr267      O1139   2.460   1_545  S
Zr267       O272   2.408       .  S
Zr267      O2007   2.395       .  S
Zr267      O1150   2.395   1_545  S
Zr267      O2913   2.396   1_545  S
Zr268      O1999   2.423       .  S
Zr268      O1130   2.379   1_545  S
Zr268       O274   2.376       .  S
Zr268      O2008   2.374       .  S
Zr268      O1149   2.377   1_545  S
Zr268      O2911   2.362   1_545  S
O269      Zr1144   2.375       .  S
O269      Zr1148   2.378       .  S
O269        H277   0.967       .  S
O270      Zr1144   2.386       .  S
O270      Zr1147   2.393       .  S
O271      Zr1121   2.351       .  S
O271      Zr2021   2.358   1_455  S
O271      Zr2908   2.368   1_455  S
O272        H276   0.963       .  S
O273      Zr1121   2.382       .  S
O273      Zr2021   2.381   1_455  S
O273      Zr2907   2.401   1_455  S
O273        H278   0.967       .  S
O291       Zr303   2.459       .  S
O291        C293   1.292       .  A
O292      Zr1209   2.454       .  S
O292        C293   1.293       .  A
C293        C447   1.502       .  S
O294       Zr306   2.454       .  S
O294       C1176   1.289       .  A
O295      Zr2090   2.404   1_455  S
O295       C1176   1.282       .  A
C296       C1369   1.493   1_545  S
C296       O1174   1.294       .  A
C296       O1175   1.281       .  A
O297       Zr306   2.431       .  S
O297       C1179   1.286       .  A
O298      Zr2089   2.485   1_455  S
O298       C1179   1.299       .  A
C299        C839   1.512       .  S
C299       O1177   1.287       .  A
C299       O1178   1.297       .  A
O300       Zr303   2.484       .  S
O300        C302   1.297       .  A
O301      Zr1210   2.387       .  S
O301        C302   1.279       .  A
C302       C2221   1.494       .  S
Zr303       O305   2.435       .  S
Zr303      O2064   2.434       .  S
Zr303       O333   2.378       .  S
Zr303       O335   2.391       .  S
Zr303      O2069   2.378       .  S
Zr303      O2070   2.363       .  S
O304      Zr2063   2.433       .  S
O304        H347   0.990       .  S
O305        H346   0.989       .  S
O305        H350   0.991       .  S
Zr306       O308   2.434       .  S
Zr306      O1187   2.435       .  S
Zr306       O334   2.373       .  S
Zr306       O336   2.367       .  S
Zr306      O1190   2.364       .  S
Zr306      O1189   2.380       .  S
O307      Zr1186   2.434       .  S
O307        H348   0.989       .  S
O307        H351   0.990       .  S
O308        H341   0.990       .  S
O309      Zr2063   2.375       .  S
O309      Zr1186   2.389       .  S
O309      Zr2969   2.398   1_455  S
O310      Zr2063   2.372       .  S
O310      Zr1186   2.360       .  S
O310      Zr2970   2.374   1_455  S
O310        H337   0.967       .  S
O311       Zr323   2.438       .  S
O311       C1193   1.284       .  A
O312      Zr1210   2.415       .  S
O312       C1193   1.283       .  A
C313        C503   1.471       .  S
C313       O1191   1.283       .  A
C313       O1192   1.283       .  A
O314       Zr326   2.452       .  S
O314        C316   1.291       .  A
O315       Zr329   2.462       .  S
O315        C316   1.295       .  A
C316        C433   1.507       .  S
O317       Zr326   2.487       .  S
O317        C319   1.297       .  A
O318       Zr330   2.392       .  S
O318        C319   1.280       .  A
C319        C475   1.497       .  S
O320       Zr323   2.418       .  S
O320       C1202   1.284       .  A
O321      Zr1209   2.493       .  S
O321       C1202   1.301       .  A
C322        C828   1.508       .  S
C322       O1200   1.283       .  A
C322       O1201   1.300       .  A
Zr323       O325   2.437       .  S
Zr323      O1204   2.433   1_545  S
Zr323       O335   2.376       .  S
Zr323       O333   2.369       .  S
Zr323      O1211   2.370   1_545  S
Zr323      O1212   2.378   1_545  S
O324      Zr1203   2.430       .  S
O324        H344   0.989       .  S
O324        H349   0.990       .  S
O325        H345   0.990       .  S
Zr326       O327   2.435       .  S
Zr326      O2088   2.430       .  S
Zr326       O332   2.378       .  S
Zr326       O331   2.365       .  S
Zr326      O2096   2.366       .  S
Zr326      O2094   2.381       .  S
O327        H343   0.991       .  S
O328      Zr2086   2.429   1_455  S
O328        H342   0.990       .  S
O328        H352   0.990       .  S
Zr329      O1172   2.467       .  S
Zr329      O2058   2.471       .  S
Zr329      O1201   2.487       .  S
Zr329       O332   2.389       .  S
Zr329      O2949   2.402       .  S
Zr329      O2094   2.405       .  S
Zr329      O1215   2.402       .  S
Zr330      O2055   2.390       .  S
Zr330      O1181   2.394       .  S
Zr330      O1192   2.415       .  S
Zr330       O331   2.367       .  S
Zr330      O2950   2.376       .  S
Zr330      O1213   2.369       .  S
Zr330      O2096   2.377       .  S
O331      Zr1203   2.367       .  S
O331        H339   0.964       .  S
O332      Zr1203   2.379       .  S
O333      Zr1210   2.378       .  S
O334      Zr2086   2.385   1_455  S
O334      Zr2089   2.400   1_455  S
O334        H338   0.965       .  S
O335      Zr1209   2.404       .  S
O335        H340   0.965       .  S
O336      Zr2086   2.361   1_455  S
O336      Zr2090   2.372   1_455  S
N353        H385   1.042       .  S
N353        C358   1.349       .  A
N353        C357   1.349       .  A
N354        C361   1.349       .  A
N354        C362   1.349       .  A
N355        H386   1.041       .  S
N355        C360   1.350       .  A
N355        C359   1.350       .  A
N356        C363   1.348       .  A
N356        C364   1.348       .  A
C357        C365   1.386   1_455  A
C357        C373   1.406       .  A
C358        C374   1.408       .  A
C358        C366   1.387   1_455  A
C359        C367   1.387   1_455  A
C359        C376   1.411       .  A
C360        C375   1.410       .  A
C360        C368   1.387   1_455  A
C361        C373   1.412       .  A
C361        C369   1.385       .  A
C362        C376   1.415       .  A
C362        C370   1.387       .  A
C363        C371   1.387       .  A
C363        C374   1.412       .  A
C364        C372   1.386       .  A
C364        C375   1.410       .  A
C365        C366   1.371       .  A
C365        H377   1.082       .  S
C366        H378   1.082       .  S
C367        C368   1.373       .  A
C367        H379   1.082       .  S
C368        H380   1.082       .  S
C369        C370   1.380       .  A
C369        H381   1.082       .  S
C370        H382   1.082       .  S
C371        C372   1.380       .  A
C371        H383   1.082       .  S
C372        H384   1.082       .  S
C373        C548   1.495       .  S
C374       C2322   1.493       .  S
C375        C478   1.490       .  S
C376        C464   1.497       .  S
N387        H419   1.039       .  S
N387        C392   1.351       .  A
N387        C391   1.355       .  A
N388        C395   1.353       .  A
N388        C396   1.350       .  A
N389        H420   1.040       .  S
N389        C394   1.353       .  A
N389        C393   1.348       .  A
N390        C397   1.346       .  A
N390        C398   1.349       .  A
C391        C399   1.386       .  A
C391        C407   1.414       .  A
C392        C408   1.415       .  A
C392        C400   1.388       .  A
C393        C401   1.389       .  A
C393        C410   1.410       .  A
C394        C409   1.411       .  A
C394        C402   1.386       .  A
C395        C407   1.415       .  A
C395        C403   1.385       .  A
C396        C410   1.414       .  A
C396        C404   1.387       .  A
C397        C405   1.387       .  A
C397        C408   1.410       .  A
C398        C406   1.385       .  A
C398        C409   1.409       .  A
C399        C400   1.369       .  A
C399        H411   1.082       .  S
C400        H412   1.082       .  S
C401        C402   1.369       .  A
C401        H413   1.082       .  S
C402        H414   1.082       .  S
C403        C404   1.381       .  A
C403        H415   1.082       .  S
C404        H416   1.082       .  S
C405        C406   1.377       .  A
C405        H417   1.082       .  S
C406        H418   1.083       .  S
C407        C534   1.501       .  S
C408        C520   1.488       .  S
C409        C492   1.495       .  S
C410        C506   1.485       .  S
C421        C427   1.550       .  S
C421        C425   1.549       .  S
C421       C2182   1.519       .  S
C421        C436   1.565       .  S
C422       C2181   1.522   1_455  S
C422        H429   1.087       .  S
C422        C423   1.357       .  D
C423       C2184   1.562   1_455  S
C423        C576   1.502       .  S
C424        C428   1.544       .  S
C424        C426   1.560       .  S
C424       C2183   1.562       .  S
C424        H430   1.104       .  S
C425        H431   1.076       .  S
C425        C426   1.375       .  D
C426        C590   1.532       .  S
C427        H432   1.085       .  S
C427        C428   1.376       .  D
C428        C450   1.519       .  S
C433        C434   1.414       .  A
C433       C2198   1.416       .  A
C434        C435   1.420       .  A
C434        C439   1.450       .  S
C435        C436   1.427       .  A
C435        C442   1.449       .  S
C436       C2197   1.425       .  A
C437        C438   1.414       .  A
C437       C2196   1.426   1_455  A
C437        C440   1.454       .  S
C438       C2193   1.414   1_455  A
C438        C441   1.452       .  S
C439        N446   1.157       .  T
C440        N445   1.158       .  T
C441        N443   1.157       .  T
C442        N444   1.158       .  T
C447        C452   1.412       .  A
C447       C2208   1.414       .  A
C448        C449   1.421       .  A
C448       C2207   1.411   1_455  A
C448        C453   1.451       .  S
C449       C2210   1.424   1_455  A
C449        C456   1.447       .  S
C450        C451   1.419       .  A
C450       C2209   1.423       .  A
C451        C452   1.413       .  A
C451        C454   1.449       .  S
C452        C455   1.451       .  S
C453        N460   1.157       .  T
C454        N459   1.156       .  T
C455        N457   1.157       .  T
C456        N458   1.158       .  T
C461        C466   1.415       .  A
C461       C2222   1.422   1_455  A
C461       C2062   1.490       .  S
C462        C463   1.408       .  A
C462       C2221   1.422       .  A
C462        C467   1.448       .  S
C463       C2224   1.409       .  A
C463        C470   1.452       .  S
C464        C465   1.416       .  A
C464       C2223   1.409   1_455  A
C465        C466   1.410       .  A
C465        C468   1.451       .  S
C466        C469   1.451       .  S
C467        N474   1.156       .  T
C468        N473   1.157       .  T
C469        N471   1.157       .  T
C470        N472   1.157       .  T
C475        C480   1.422       .  A
C475       C2236   1.416       .  A
C476        C477   1.410       .  A
C476       C2235   1.414       .  A
C476        C481   1.449       .  S
C477        C478   1.410       .  A
C477        C484   1.451       .  S
C478       C2239   1.407   1_455  A
C479        C480   1.410       .  A
C479       C2238   1.409       .  A
C479        C482   1.453       .  S
C480        C483   1.448       .  S
C481        N488   1.156       .  T
C482        N487   1.157       .  T
C483        N485   1.156       .  T
C484        N486   1.157       .  T
C489        C494   1.415       .  A
C489       C1370   1.416       .  A
C489       C1176   1.486       .  S
C490        C491   1.410       .  A
C490       C1369   1.419   1_545  A
C490        C495   1.449       .  S
C491       C1372   1.410   1_545  A
C491        C498   1.453       .  S
C492        C493   1.413       .  A
C492       C1371   1.410       .  A
C493        C494   1.412       .  A
C493        C496   1.451       .  S
C494        C497   1.450       .  S
C495        N502   1.156       .  T
C496        N501   1.157       .  T
C497        N499   1.157       .  T
C498        N500   1.157       .  T
C503        C504   1.408       .  A
C503        C508   1.410       .  A
C504        C505   1.408       .  A
C504       C1389   1.451       .  S
C505        C506   1.411       .  A
C505        C512   1.450       .  S
C506        C507   1.411       .  A
C507        C508   1.407       .  A
C507        C510   1.452       .  S
C508        C511   1.452       .  S
C509       C1384   1.451       .  S
C509        N516   1.157       .  T
C510        N515   1.157       .  T
C511        N513   1.157       .  T
C512        N514   1.157       .  T
C517        C518   1.416   1_565  A
C517       C1402   1.418       .  A
C518        C519   1.408       .  A
C518        C523   1.447       .  S
C519       C1400   1.408   1_545  A
C519        C526   1.452       .  S
C520        C521   1.409       .  A
C520       C1399   1.407       .  A
C521        C522   1.410       .  A
C521        C524   1.451       .  S
C522       C1397   1.415       .  A
C522        C525   1.448       .  S
C523        N530   1.155       .  T
C524        N529   1.157       .  T
C525        N527   1.157       .  T
C526        N528   1.157       .  T
C531        C536   1.410       .  A
C531       C1412   1.410       .  A
C532        C533   1.411       .  A
C532       C1411   1.409       .  A
C532        C537   1.451       .  S
C533       C1414   1.414       .  A
C533        C540   1.450       .  S
C534        C535   1.413       .  A
C534       C1413   1.416       .  A
C535        C536   1.412       .  A
C535        C538   1.449       .  S
C536        C539   1.452       .  S
C537        N544   1.157       .  T
C538        N543   1.157       .  T
C539        N541   1.157       .  T
C540        N542   1.157       .  T
C545        C546   1.424       .  A
C545       C2310   1.416       .  A
C546        C547   1.408       .  A
C546        C551   1.449       .  S
C547       C2308   1.406       .  A
C547        C554   1.452       .  S
C548        C549   1.414       .  A
C548       C2307   1.406   1_455  A
C549        C550   1.413       .  A
C549        C552   1.451       .  S
C550       C2305   1.416       .  A
C550        C553   1.449       .  S
C551        N558   1.156       .  T
C552        N557   1.157       .  T
C553        N555   1.157       .  T
C554        N556   1.157       .  T
C559        C564   1.420       .  A
C559       C2320   1.418       .  A
C560        C561   1.409       .  A
C560       C2319   1.414       .  A
C560        C565   1.451       .  S
C561       C2322   1.414       .  A
C561        C568   1.451       .  S
C562        C563   1.404       .  A
C562       C2321   1.409       .  A
C562       C2134   1.484       .  S
C563        C564   1.402       .  A
C563        C566   1.452       .  S
C564        C567   1.449       .  S
C565        N572   1.157       .  T
C566        N571   1.157       .  T
C567        N569   1.156       .  T
C568        N570   1.157       .  T
C573        C574   1.415       .  A
C573        C578   1.423       .  A
C574        C575   1.421       .  A
C574        C579   1.450       .  S
C575        C576   1.418       .  A
C575        C582   1.448       .  S
C576        C577   1.410       .  A
C577        C578   1.412       .  A
C577        C580   1.454       .  S
C578        C581   1.451       .  S
C579        N586   1.158       .  T
C580       N2345   1.157       .  T
C581        N583   1.157       .  T
C582        N584   1.157       .  T
N585       C2340   1.157       .  T
C587        C588   1.416       .  A
C587        C592   1.426       .  A
C588        C589   1.422       .  A
C588        C593   1.453       .  S
C589        C590   1.430       .  A
C589        C596   1.450       .  S
C590        C591   1.418       .  A
C591        C592   1.420       .  A
C591        C594   1.451       .  S
C592        C595   1.453       .  S
C593        N600   1.158       .  T
C594        N599   1.158       .  T
C595        N597   1.157       .  T
C596        N598   1.157       .  T
C601        C602   1.407       .  A
C601        C606   1.409       .  A
C602        C603   1.404       .  A
C602        C607   1.454       .  S
C603        C604   1.421       .  A
C603        C610   1.448       .  S
C604        C605   1.414       .  A
C605        C606   1.407       .  A
C605        C608   1.450       .  S
C606        C609   1.451       .  S
C607        N614   1.157       .  T
C608        N613   1.157       .  T
C609        N611   1.157       .  T
C610        N612   1.156       .  T
C615        C616   1.425       .  A
C615        C620   1.417       .  A
C616        C617   1.413       .  A
C616        C621   1.449       .  S
C617        C618   1.410       .  A
C617        C624   1.452       .  S
C618        C619   1.415       .  A
C619        C620   1.414       .  A
C619        C622   1.451       .  S
C620        C623   1.449       .  S
C621        N628   1.157       .  T
C622        N627   1.157       .  T
C623        N625   1.157       .  T
C624        N626   1.157       .  T
C629        C630   1.414       .  A
C629        C634   1.414       .  A
C630        C631   1.410       .  A
C630        C635   1.446       .  S
C631        C632   1.409       .  A
C631        C638   1.451       .  S
C632        C633   1.413       .  A
C633        C634   1.414       .  A
C633        C636   1.450       .  S
C634        C637   1.450       .  S
C635        N642   1.155       .  T
C636        N641   1.157       .  T
C637        N639   1.157       .  T
C638        N640   1.157       .  T
C643        C644   1.410       .  A
C643        C648   1.409       .  A
C644        C645   1.405       .  A
C644        C649   1.451       .  S
C645        C646   1.409       .  A
C645        C652   1.451       .  S
C646        C647   1.408       .  A
C647        C648   1.403       .  A
C647        C650   1.452       .  S
C648        C651   1.451       .  S
C649        N656   1.157       .  T
C650        N655   1.157       .  T
C651        N653   1.157       .  T
C652        N654   1.157       .  T
C657        C658   1.413       .  A
C657       C2422   1.412       .  A
C658        C659   1.420       .  A
C658        C663   1.447       .  S
C659        C660   1.420       .  A
C659        C666   1.449       .  S
C660       C1826   1.514       .  S
C660       C2421   1.423       .  A
C661        C662   1.414       .  A
C661       C2420   1.420       .  A
C661        C664   1.452       .  S
C662       C2417   1.413       .  A
C662        C665   1.451       .  S
C663        N670   1.157       .  T
C664        N669   1.157       .  T
C665        N667   1.157       .  T
C666        N668   1.158       .  T
C671       C1819   1.565       .  S
C671        C676   1.427       .  A
C671       C2432   1.429       .  A
C672        C673   1.416       .  A
C672       C2431   1.425   1_455  A
C672        C677   1.447       .  S
C673       C2434   1.412   1_455  A
C673        C680   1.450       .  S
C674        C675   1.418       .  A
C674       C2433   1.413       .  A
C675        C676   1.415       .  A
C675        C678   1.453       .  S
C676        C679   1.452       .  S
C677        N684   1.157       .  T
C678        N683   1.157       .  T
C679        N681   1.157       .  T
C680        N682   1.157       .  T
C685        C686   1.420       .  A
C685        C690   1.416       .  A
C686        C687   1.423       .  A
C686        C691   1.445       .  S
C687        C688   1.411       .  A
C687        C694   1.451       .  S
C688        C689   1.418       .  A
C689        C690   1.414       .  A
C689        C692   1.453       .  S
C690        C693   1.450       .  S
C691        N698   1.156       .  T
C692        N697   1.157       .  T
C693        N695   1.157       .  T
C694        N696   1.157       .  T
C699        C700   1.433       .  A
C699        C704   1.415       .  A
C700        C701   1.419       .  A
C700        C705   1.453       .  S
C701        C702   1.411       .  A
C701        C708   1.451       .  S
C702        C703   1.425       .  A
C703        C704   1.420       .  A
C703        C706   1.448       .  S
C704        C707   1.452       .  S
C705        N712   1.157       .  T
C706        N711   1.156       .  T
C707        N709   1.158       .  T
C708        N710   1.157       .  T
C713        C714   1.412   1_565  A
C713       C1598   1.416       .  A
C714        C715   1.416       .  A
C714        C719   1.448       .  S
C715       C1596   1.414       .  A
C715        C722   1.443       .  S
C716        C717   1.418       .  A
C716       C1595   1.413       .  A
C717        C718   1.416       .  A
C717        C720   1.451       .  S
C718       C1593   1.417       .  A
C718        C721   1.453       .  S
C719        N726   1.158       .  T
C720        N725   1.157       .  T
C721        N723   1.157       .  T
C722        N724   1.156       .  T
C727        C732   1.403       .  A
C727       C1608   1.417       .  A
C728        C729   1.421       .  A
C728       C1607   1.418       .  A
C728        C733   1.446       .  S
C729       C1610   1.420       .  A
C729        C736   1.452       .  S
C730        C731   1.440       .  A
C730       C1609   1.417       .  A
C731        C732   1.418       .  A
C731        C734   1.452       .  S
C732        C735   1.452       .  S
C733        N740   1.155       .  T
C734        N739   1.158       .  T
C735        N737   1.157       .  T
C736        N738   1.158       .  T
C741        C742   1.408       .  A
C741        C746   1.412       .  A
C742        C743   1.411       .  A
C742        C747   1.453       .  S
C743        C744   1.430       .  A
C743        C750   1.451       .  S
C744        C745   1.427       .  A
C745        C746   1.421       .  A
C745        C748   1.446       .  S
C746        C749   1.452       .  S
C747        N754   1.157       .  T
C748        N753   1.158       .  T
C749        N751   1.157       .  T
C750       N1632   1.158       .  T
N752       C1630   1.158       .  T
C755        C756   1.430       .  A
C755        C760   1.431       .  A
C756        C757   1.414       .  A
C756        C761   1.449       .  S
C757        C758   1.404       .  A
C757        C764   1.447       .  S
C758        C759   1.407       .  A
C759        C760   1.415       .  A
C759        C762   1.453       .  S
C760        C763   1.452       .  S
C761        N768   1.158       .  T
C762        N767   1.157       .  T
C763        N765   1.157       .  T
C764        N766   1.155       .  T
C769        C770   1.410       .  A
C769        C774   1.411       .  A
C770        C771   1.405       .  A
C770        C775   1.451       .  S
C771        C772   1.409       .  A
C771        C778   1.452       .  S
C772        C773   1.407       .  A
C773        C774   1.404       .  A
C773        C776   1.452       .  S
C774        C777   1.450       .  S
C775        N782   1.157       .  T
C776        N781   1.157       .  T
C777        N779   1.157       .  T
C778        N780   1.157       .  T
C783        C784   1.410       .  A
C783        C788   1.410       .  A
C784        C785   1.409       .  A
C784        C789   1.452       .  S
C785        C786   1.413       .  A
C785        C792   1.447       .  S
C786        C787   1.413       .  A
C787        C788   1.410       .  A
C787        C790   1.450       .  S
C788        C791   1.450       .  S
C789        N796   1.157       .  T
C790        N795   1.157       .  T
C791        N793   1.157       .  T
C792        N794   1.155       .  T
C797        C798   1.415       .  A
C797        C802   1.407       .  A
C798        C799   1.406       .  A
C798        C803   1.451       .  S
C799        C800   1.414       .  A
C799        C806   1.452       .  S
C800        C801   1.420       .  A
C801        C802   1.404       .  A
C801        C804   1.448       .  S
C802        C805   1.452       .  S
C803        N810   1.157       .  T
C804        N809   1.156       .  T
C805        N807   1.157       .  T
C806        N808   1.157       .  T
C811        C812   1.410       .  A
C811        C816   1.406       .  A
C812        C813   1.408       .  A
C812        C817   1.450       .  S
C813        C814   1.416       .  A
C813        C820   1.450       .  S
C814        C815   1.422       .  A
C815        C816   1.407       .  A
C815        C818   1.448       .  S
C816        C819   1.453       .  S
C817        N824   1.157       .  T
C818        N823   1.156       .  T
C819        N821   1.157       .  T
C820        N822   1.157       .  T
C825        C830   1.411       .  A
C825       C1706   1.417   1_565  A
C826        C827   1.419       .  A
C826       C1705   1.417       .  A
C826        C831   1.449       .  S
C827        C828   1.415       .  A
C827        C834   1.450       .  S
C828       C1709   1.425       .  A
C829        C830   1.416       .  A
C829       C1708   1.425   1_565  A
C829        C832   1.451       .  S
C830        C833   1.454       .  S
C831        N838   1.157       .  T
C832        N837   1.157       .  T
C833        N835   1.157       .  T
C834        N836   1.157       .  T
C839        C844   1.420       .  A
C839       C1720   1.413   1_545  A
C840        C841   1.425       .  A
C840       C1719   1.415       .  A
C840        C845   1.452       .  S
C841       C1722   1.432       .  A
C841        C848   1.450       .  S
C842        C843   1.418   1_565  A
C842       C1721   1.430       .  A
C843        C844   1.417       .  A
C843        C846   1.450       .  S
C844        C847   1.451       .  S
C845        N852   1.158       .  T
C846        N851   1.158       .  T
C847        N849   1.157       .  T
C848        N850   1.157       .  T
C853        C854   1.424       .  A
C853        C858   1.422       .  A
C854        C855   1.422       .  A
C854        C859   1.447       .  S
C855        C856   1.413       .  A
C855        C862   1.451       .  S
C856        C857   1.413       .  A
C857        C858   1.414       .  A
C857        C860   1.453       .  S
C858        C861   1.450       .  S
C859        N866   1.158       .  T
C860        N865   1.157       .  T
C861        N863   1.157       .  T
C862        N864   1.157       .  T
C867        C868   1.415       .  A
C867        C872   1.414       .  A
C868        C869   1.414       .  A
C868        C873   1.451       .  S
C869        C870   1.423       .  A
C869        C876   1.453       .  S
C870        C871   1.424       .  A
C871        C872   1.416       .  A
C871        C874   1.450       .  S
C872        C875   1.451       .  S
C873        N880   1.157       .  T
C874        N879   1.158       .  T
C875        N877   1.157       .  T
C876        N878   1.157       .  T
C881        C882   1.521       .  S
C881        C887   1.550       .  S
C881        C885   1.546       .  S
C881       C1750   1.563       .  S
C882        H889   1.087       .  S
C883        C884   1.564       .  S
C883       C1705   1.499       .  S
C884        C888   1.545       .  S
C884        C886   1.562       .  S
C884        H890   1.103       .  S
C885        H891   1.079       .  S
C886       C1722   1.535       .  S
C888       C1733   1.516       .  S
N893        H925   1.042       .  S
N893       C2658   1.352       .  A
N893        C897   1.350       .  A
N894        C901   1.347   1_554  A
N894        C902   1.348       .  A
N895        H926   1.040       .  S
N895       C2660   1.349       .  A
N895        C899   1.351       .  A
N896        C903   1.350   1_554  A
N896        C904   1.345       .  A
C897        C905   1.386       .  A
C897        C913   1.409       .  A
C898       N2653   1.350   1_455  A
C898        C914   1.407       .  A
C898        C906   1.386       .  A
C899        C907   1.386       .  A
C899        C916   1.409       .  A
C900       N2655   1.348   1_455  A
C900        C915   1.413       .  A
C900        C908   1.391       .  A
C901        C913   1.409       .  A
C901        C909   1.386       .  A
C902        C916   1.407       .  A
C902        C910   1.385       .  A
C903        C911   1.386       .  A
C903        C914   1.412       .  A
C904        C912   1.387       .  A
C904        C915   1.407       .  A
C905       C2666   1.372       .  A
C905        H917   1.082       .  S
C906       C2665   1.373   1_455  A
C906        H918   1.082       .  S
C907       C2668   1.370       .  A
C907        H919   1.082       .  S
C908       C2667   1.369   1_455  A
C908        H920   1.082       .  S
C909        C910   1.378   1_556  A
C909        H921   1.082       .  S
C910        H922   1.082       .  S
C911        C912   1.379   1_556  A
C911        H923   1.082       .  S
C912        H924   1.083       .  S
C913       C1691   1.491       .  S
C914       C1677   1.498       .  S
C915       C1649   1.476       .  S
C916       C1663   1.489       .  S
C927        C928   1.544       .  S
C927        C933   1.538       .  S
C927        C931   1.525       .  S
C927       C1635   1.557       .  S
C928        H935   1.078       .  S
C929        C930   1.546       .  S
C929       C1607   1.511       .  S
C930        C934   1.553       .  S
C930        C932   1.570       .  S
C930        H936   1.102       .  S
C931        H937   1.087       .  S
C932       C1593   1.509       .  S
C934       C1624   1.527       .  S
C939       C2700   1.531       .  S
C939        C945   1.543       .  S
C939        C943   1.545   1_655  S
C939       C3311   1.566       .  S
C940       C2699   1.530       .  S
C940        H947   1.086       .  S
C940        C941   1.367       .  D
C941       C2702   1.566       .  S
C941       C1582   1.524       .  S
C942       C2701   1.563       .  S
C942        C946   1.547       .  S
C942        C944   1.552   1_655  S
C942        H948   1.108   1_655  S
C943        H949   1.083       .  S
C943        C944   1.368       .  D
C944       C1565   1.510       .  S
C945        H950   1.084       .  S
C945        C946   1.369       .  D
C946       C3300   1.510   1_655  S
N951        H983   1.041       .  S
N951        C956   1.348       .  A
N952        C959   1.350       .  A
N952        C960   1.346   1_554  A
N953        H984   1.040       .  S
N953        C958   1.353       .  A
N954        C961   1.347   1_556  A
N954        C962   1.350       .  A
C955        C963   1.386       .  A
C955        C971   1.412       .  A
C956        C972   1.411       .  A
C956        C964   1.389       .  A
C957        C965   1.388       .  A
C957        C974   1.408       .  A
C958        C973   1.410       .  A
C958        C966   1.386       .  A
C959        C971   1.412       .  A
C959        C967   1.386       .  A
C960        C974   1.407       .  A
C960        C968   1.386       .  A
C961        C969   1.388       .  A
C961        C972   1.412       .  A
C962        C970   1.384       .  A
C962        C973   1.410       .  A
C963        H975   1.082       .  S
C964        H976   1.082       .  S
C965        H977   1.082       .  S
C966        H978   1.082       .  S
C967        C968   1.379   1_554  A
C967        H979   1.082       .  S
C968        H980   1.083       .  S
C969        C970   1.379   1_554  A
C969        H981   1.082       .  S
C970        H982   1.082       .  S
C971       C1498   1.503       .  S
C972       C1481   1.487       .  S
C973       C1512   1.499       .  S
C974       C1523   1.478       .  S
O985       Zr997   2.470       .  S
O985        C987   1.294       .  A
O986      Zr1023   2.388       .  S
O986        C987   1.279       .  A
C987       C1694   1.487       .  S
O988      Zr1000   2.426       .  S
O988        C990   1.285       .  A
O989      Zr1024   2.444       .  S
O989        C990   1.290       .  A
C990       C1638   1.483       .  S
O991      Zr1000   2.424       .  S
O991        C993   1.283       .  A
O992      Zr1023   2.408       .  S
O992        C993   1.283       .  A
C993       C1526   1.461       .  S
O994       Zr997   2.411       .  S
O994        C996   1.281       .  A
O995      Zr1024   2.510       .  S
O995        C996   1.304       .  A
C996       C1579   1.531       .  S
Zr997       O998   2.433       .  S
Zr997       O999   2.436       .  S
Zr997      O1003   2.362       .  S
Zr997      O1004   2.385       .  S
Zr997      O1027   2.380       .  S
Zr997      O1029   2.350       .  S
O998       H1041   0.990       .  S
O999       H1040   0.990       .  S
O999       H1044   0.989       .  S
Zr1000     O1001   2.433       .  S
Zr1000     O1002   2.436       .  S
Zr1000     O1004   2.369       .  S
Zr1000     O1003   2.374       .  S
Zr1000     O1028   2.372       .  S
Zr1000     O1030   2.366       .  S
O1001      H1042   0.989       .  S
O1001      H1045   0.990       .  S
O1002      H1035   0.990       .  S
O1003     Zr1023   2.373       .  S
O1004     Zr1024   2.396       .  S
O1004      H1031   0.966       .  S
O1005     Zr1017   2.442       .  S
O1005      C1007   1.290       .  A
O1006     Zr1024   2.441       .  S
O1006      C1007   1.291       .  A
C1007      C1621   1.497       .  S
O1008     Zr1020   2.480       .  S
O1008      C1010   1.296       .  A
O1009     Zr1023   2.382       .  S
O1009      C1010   1.278       .  A
C1010      C1680   1.497       .  S
O1011     Zr1020   2.423       .  S
O1011      C1013   1.285       .  A
O1012     Zr1024   2.488       .  S
O1012      C1013   1.300       .  A
C1013      C1568   1.506       .  S
O1014     Zr1017   2.469       .  S
O1014      C1016   1.294       .  A
O1015     Zr1023   2.418       .  S
O1015      C1016   1.285       .  A
C1016      C1509   1.492       .  S
Zr1017     O1018   2.429       .  S
Zr1017     O1019   2.434       .  S
Zr1017     O1025   2.377       .  S
Zr1017     O1026   2.364       .  S
Zr1017     O1029   2.361       .  S
Zr1017     O1027   2.381       .  S
O1018      H1038   0.990       .  S
O1018      H1043   0.989       .  S
O1019      H1039   0.990       .  S
Zr1020     O1021   2.432       .  S
Zr1020     O1022   2.435       .  S
Zr1020     O1026   2.361       .  S
Zr1020     O1025   2.383       .  S
Zr1020     O1030   2.383       .  S
Zr1020     O1028   2.355       .  S
O1021      H1037   0.990       .  S
O1022      H1036   0.990       .  S
O1022      H1046   0.990       .  S
Zr1023     O1026   2.367       .  S
Zr1023     O1028   2.374       .  S
Zr1023     O1029   2.364       .  S
Zr1024     O1025   2.405       .  S
Zr1024     O1027   2.392       .  S
Zr1024     O1030   2.394       .  S
O1025      H1033   0.964       .  S
O1028      H1032   0.970       .  S
O1029      H1034   0.965       .  S
O1047     Zr1059   2.436       .  S
O1047      C1049   1.288       .  A
O1048     Zr1085   2.471       .  S
O1048      C1049   1.297       .  A
C1049      C1467   1.513       .  S
O1050     Zr1062   2.491       .  S
O1050      C1052   1.297       .  A
O1051     Zr1086   2.394       .  S
O1051      C1052   1.280       .  A
C1052      C1495   1.502       .  S
O1053     Zr1062   2.435       .  S
O1053      C1055   1.288       .  A
O1054     Zr1085   2.462       .  S
O1054      C1055   1.295       .  A
C1055      C1747   1.506       .  S
O1056     Zr1059   2.461       .  S
O1056      C1058   1.291       .  A
O1057     Zr1086   2.398       .  S
O1057      C1058   1.281       .  A
C1058      C1666   1.480       .  S
Zr1059     O1060   2.435       .  S
Zr1059     O1061   2.428       .  S
Zr1059     O1065   2.377       .  S
Zr1059     O1066   2.367       .  S
Zr1059     O1089   2.358       .  S
Zr1059     O1091   2.386       .  S
O1060      H1103   0.990       .  S
O1061      H1102   0.989       .  S
O1061      H1106   0.990       .  S
Zr1062     O1063   2.426       .  S
Zr1062     O1064   2.434       .  S
Zr1062     O1066   2.362       .  S
Zr1062     O1065   2.384       .  S
Zr1062     O1090   2.386       .  S
Zr1062     O1092   2.363       .  S
O1063      H1104   0.989       .  S
O1063      H1107   0.990       .  S
O1064      H1097   0.990       .  S
O1065     Zr1085   2.395       .  S
O1066     Zr1086   2.367       .  S
O1066      H1093   0.963       .  S
O1067     Zr1079   2.478       .  S
O1067      C1069   1.295       .  A
O1068     Zr1086   2.379       .  S
O1068      C1069   1.278       .  A
C1069      C1484   1.489       .  S
O1070     Zr1082   2.421       .  S
O1070      C1072   1.285       .  A
O1071     Zr1085   2.493       .  S
O1071      C1072   1.299       .  A
C1072      C1453   1.513       .  S
O1073     Zr1082   2.418       .  S
O1073      C1075   1.281       .  A
O1074     Zr1086   2.407       .  S
O1074      C1075   1.283       .  A
C1075      C1652   1.456       .  S
O1076     Zr1079   2.439       .  S
O1076      C1078   1.288       .  A
O1077     Zr1085   2.451       .  S
O1077      C1078   1.292       .  A
C1078      C1736   1.500       .  S
Zr1079     O1080   2.438       .  S
Zr1079     O1081   2.437       .  S
Zr1079     O1087   2.355       .  S
Zr1079     O1088   2.383       .  S
Zr1079     O1091   2.385       .  S
Zr1079     O1089   2.361       .  S
O1080      H1100   0.990       .  S
O1080      H1105   0.990       .  S
O1081      H1101   0.989       .  S
Zr1082     O1083   2.433       .  S
Zr1082     O1084   2.433       .  S
Zr1082     O1088   2.370       .  S
Zr1082     O1087   2.372       .  S
Zr1082     O1092   2.371       .  S
Zr1082     O1090   2.371       .  S
O1083      H1099   0.990       .  S
O1084      H1098   0.990       .  S
O1084      H1108   0.990       .  S
Zr1085     O1088   2.391       .  S
Zr1085     O1090   2.397       .  S
Zr1085     O1091   2.409       .  S
Zr1086     O1087   2.373       .  S
Zr1086     O1089   2.368       .  S
Zr1086     O1092   2.366       .  S
O1087      H1095   0.964       .  S
O1090      H1094   0.966       .  S
O1091      H1096   0.963       .  S
O1109     Zr1121   2.416       .  S
O1109      C1111   1.281       .  A
O1110     Zr2907   2.495   1_455  S
O1110      C1111   1.301       .  A
C1111      C1610   1.532       .  S
O1112     Zr1124   2.477       .  S
O1112      C1114   1.295       .  A
O1113     Zr1148   2.395       .  S
O1113      C1114   1.281       .  A
C1114      C1425   1.493       .  S
O1115     Zr1124   2.446       .  S
O1115      C1117   1.290       .  A
O1116     Zr1147   2.440       .  S
O1116      C1117   1.290       .  A
C1117      C1537   1.499       .  S
O1118     Zr1121   2.467       .  S
O1118      C1120   1.293       .  A
O1119     Zr2908   2.403   1_455  S
O1119      C1120   1.282       .  A
C1120      C1397   1.487       .  S
Zr1121     O1122   2.434       .  S
Zr1121     O1127   2.380       .  S
Zr1121     O1128   2.363       .  S
O1122      H1165   0.990       .  S
O1123      H1164   0.990       .  S
O1123      H1168   0.990       .  S
Zr1124     O2885   2.430       .  S
Zr1124     O1126   2.434       .  S
Zr1124     O2888   2.373       .  S
Zr1124     O2887   2.375       .  S
Zr1124     O1152   2.386       .  S
Zr1124     O1154   2.369       .  S
O1125     Zr2884   2.432   1_455  S
O1125      H1166   0.989       .  S
O1125      H1169   0.990       .  S
O1126      H1159   0.990       .  S
O1127     Zr2884   2.382   1_455  S
O1127     Zr2907   2.399   1_455  S
O1128     Zr2884   2.372   1_455  S
O1128     Zr2908   2.379   1_455  S
O1128      H1155   0.966       .  S
O1129     Zr1141   2.462       .  S
O1129      C1131   1.292       .  A
O1130      C1131   1.278       .  A
C1131      C1439   1.483       .  S
O1132     Zr1144   2.419       .  S
O1133     Zr1147   2.498       .  S
C1134      C1596   1.502       .  S
O1135     Zr1144   2.456       .  S
O1136     Zr1148   2.422       .  S
C1137      C1411   1.476       .  S
O1138     Zr1141   2.438       .  S
O1138      C1140   1.288       .  A
O1139      C1140   1.294       .  A
C1140      C1554   1.509       .  S
Zr1141     O1142   2.435       .  S
Zr1141     O2903   2.434       .  S
Zr1141     O1149   2.366       .  S
Zr1141     O1150   2.374       .  S
Zr1141     O2913   2.379       .  S
Zr1141     O2911   2.362       .  S
O1142      H1162   0.990       .  S
O1142      H1167   0.990       .  S
O1143     Zr2901   2.431   1_455  S
O1143      H1163   0.990       .  S
Zr1144     O1146   2.436       .  S
Zr1144     O1154   2.363       .  S
Zr1144     O1152   2.384       .  S
O1145      H1161   0.990       .  S
O1146      H1160   0.990       .  S
O1146      H1170   0.990       .  S
Zr1147     O2870   2.493       .  S
Zr1147     O2887   2.396       .  S
Zr1147     O1152   2.409       .  S
Zr1147     O2033   2.399       .  S
Zr1148     O2879   2.408       .  S
Zr1148     O2888   2.379       .  S
Zr1148     O2031   2.372       .  S
Zr1148     O1154   2.375       .  S
O1149      H1157   0.967       .  S
O1151     Zr2901   2.359   1_455  S
O1151     Zr2028   2.362   1_465  S
O1152      H1156   0.962       .  S
O1153     Zr2901   2.377   1_455  S
O1153     Zr2027   2.396   1_465  S
O1153      H1158   0.967       .  S
O1171     Zr1183   2.450       .  S
O1171      C1173   1.290       .  A
O1172      C1173   1.295       .  A
C1173      C1327   1.505       .  S
O1174     Zr1186   2.479       .  S
O1175     Zr2970   2.398   1_455  S
O1177     Zr1186   2.429       .  S
O1178     Zr2969   2.474   1_455  S
C1179      C1719   1.523       .  S
O1180     Zr1183   2.480       .  S
O1180      C1182   1.296       .  A
O1181      C1182   1.280       .  A
C1182      C3101   1.500       .  S
Zr1183     O2944   2.434       .  S
Zr1183     O1185   2.433       .  S
Zr1183     O2949   2.384       .  S
Zr1183     O2950   2.371       .  S
Zr1183     O1213   2.371       .  S
Zr1183     O1215   2.388       .  S
O1184     Zr2943   2.433   1_455  S
O1184      H1227   0.990       .  S
O1185      H1226   0.989       .  S
O1185      H1230   0.990       .  S
Zr1186     O1188   2.434   1_545  S
Zr1186     O1214   2.378   1_545  S
Zr1186     O1216   2.357   1_545  S
O1187      H1228   0.990       .  S
O1187      H1231   0.990       .  S
O1188      H1221   0.990       .  S
O1189     Zr2943   2.387   1_455  S
O1189     Zr2089   2.400   1_455  S
O1190     Zr2943   2.366   1_455  S
O1190     Zr2090   2.374   1_455  S
O1190      H1217   0.967       .  S
O1191     Zr1203   2.434       .  S
C1193      C1383   1.473       .  S
O1194     Zr1206   2.443       .  S
O1194      C1196   1.289       .  A
O1195     Zr1209   2.455   1_565  S
O1195      C1196   1.294       .  A
C1196      C1313   1.504       .  S
O1197     Zr1206   2.469       .  S
O1197      C1199   1.292       .  A
O1198     Zr1210   2.401   1_565  S
O1198      C1199   1.282       .  A
C1199      C1355   1.494       .  S
O1200     Zr1203   2.412       .  S
C1202      C1708   1.515       .  S
Zr1203     O1205   2.435       .  S
Zr1203     O1215   2.376       .  S
Zr1203     O1213   2.363       .  S
O1204      H1224   0.989       .  S
O1204      H1229   0.990       .  S
O1205      H1225   0.990       .  S
Zr1206     O1207   2.433       .  S
Zr1206     O2968   2.426       .  S
Zr1206     O1212   2.379       .  S
Zr1206     O1211   2.368       .  S
Zr1206     O2976   2.362       .  S
Zr1206     O2974   2.375       .  S
O1207      H1223   0.990       .  S
O1208     Zr2966   2.430   1_455  S
O1208      H1222   0.990       .  S
O1208      H1232   0.990       .  S
Zr1209     O2938   2.482       .  S
Zr1209     O2069   2.401       .  S
Zr1209     O1212   2.391   1_545  S
Zr1209     O2974   2.400   1_545  S
Zr1210     O2935   2.401       .  S
Zr1210     O2070   2.374       .  S
Zr1210     O1211   2.370   1_545  S
Zr1210     O2976   2.370   1_545  S
O1211      H1219   0.964       .  S
O1214     Zr2966   2.381   1_455  S
O1214     Zr2969   2.404   1_465  S
O1214      H1218   0.965       .  S
O1215      H1220   0.965       .  S
O1216     Zr2966   2.366   1_455  S
O1216     Zr2970   2.371   1_465  S
N1233      H1265   1.042       .  S
N1233      C1238   1.350   1_455  A
N1233      C1237   1.349   1_455  A
N1234      C1241   1.349       .  A
N1234      C1242   1.350       .  A
N1235      H1266   1.042       .  S
N1235      C1240   1.348   1_455  A
N1235      C1239   1.350   1_455  A
N1236      C1243   1.348       .  A
N1236      C1244   1.348       .  A
C1237      C1245   1.386       .  A
C1237      C1253   1.409   1_655  A
C1238      C1254   1.411   1_655  A
C1238      C1246   1.388       .  A
C1239      C1247   1.387       .  A
C1239      C1256   1.408   1_655  A
C1240      C1255   1.407   1_655  A
C1240      C1248   1.387       .  A
C1241      C1253   1.414       .  A
C1241      C1249   1.386       .  A
C1242      C1256   1.415       .  A
C1242      C1250   1.386       .  A
C1243      C1251   1.386       .  A
C1243      C1254   1.411       .  A
C1244      C1252   1.386       .  A
C1244      C1255   1.411       .  A
C1245      C1246   1.374       .  A
C1245      H1257   1.082       .  S
C1246      H1258   1.082       .  S
C1247      C1248   1.374       .  A
C1247      H1259   1.082       .  S
C1248      H1260   1.082       .  S
C1249      C1250   1.381       .  A
C1249      H1261   1.082       .  S
C1250      H1262   1.082       .  S
C1251      C1252   1.381       .  A
C1251      H1263   1.082       .  S
C1252      H1264   1.082       .  S
C1253      C1428   1.496       .  S
C1254      C3202   1.493       .  S
C1255      C1358   1.491       .  S
C1256      C1344   1.501       .  S
N1267      H1299   1.038       .  S
N1267      C1272   1.352   1_565  A
N1267      C1271   1.353   1_565  A
N1268      C1275   1.352       .  A
N1268      C1276   1.351       .  A
N1269      H1300   1.039       .  S
N1269      C1274   1.354       .  A
N1269      C1273   1.351   1_565  A
N1270      C1277   1.349       .  A
N1270      C1278   1.350       .  A
C1271      C1279   1.388       .  A
C1271      C1287   1.413       .  A
C1272      C1288   1.413   1_545  A
C1272      C1280   1.387       .  A
C1273      C1281   1.388       .  A
C1273      C1290   1.411       .  A
C1274      C1289   1.413       .  A
C1274      C1282   1.387   1_565  A
C1275      C1287   1.415       .  A
C1275      C1283   1.386   1_545  A
C1276      C1290   1.414       .  A
C1276      C1284   1.386   1_545  A
C1277      C1285   1.386       .  A
C1277      C1288   1.412       .  A
C1278      C1286   1.386       .  A
C1278      C1289   1.412       .  A
C1279      C1280   1.369       .  A
C1279      H1291   1.081       .  S
C1280      H1292   1.082       .  S
C1281      C1282   1.368       .  A
C1281      H1293   1.082       .  S
C1282      H1294   1.082       .  S
C1283      C1284   1.380       .  A
C1283      H1295   1.082       .  S
C1284      H1296   1.082       .  S
C1285      C1286   1.377       .  A
C1285      H1297   1.082       .  S
C1286      H1298   1.082       .  S
C1287      C1414   1.495       .  S
C1288      C1400   1.492       .  S
C1289      C1372   1.498       .  S
C1290      C1386   1.490       .  S
C1301      C3062   1.520       .  S
C1301      C1307   1.555       .  S
C1301      C1305   1.546       .  S
C1301      C1316   1.566       .  S
C1302      C3061   1.521   1_455  S
C1302      H1309   1.087       .  S
C1302      C1303   1.356       .  D
C1303      C3064   1.565   1_455  S
C1303      C1456   1.507       .  S
C1304      C3063   1.556       .  S
C1304      C1308   1.539       .  S
C1304      C1306   1.556       .  S
C1304      H1310   1.101       .  S
C1305      H1311   1.075       .  S
C1305      C1306   1.375       .  D
C1306      C1470   1.527       .  S
C1307      H1312   1.085       .  S
C1307      C1308   1.376       .  D
C1308      C1330   1.521       .  S
C1313      C1314   1.413       .  A
C1313      C3078   1.415       .  A
C1314      C1315   1.422       .  A
C1314      C1319   1.452       .  S
C1315      C1316   1.431       .  A
C1315      C1322   1.449       .  S
C1316      C3077   1.424       .  A
C1317      C3076   1.425   1_455  A
C1317      C1318   1.412       .  A
C1317      C1320   1.454       .  S
C1318      C3073   1.413   1_455  A
C1318      C1321   1.452       .  S
C1319      N1326   1.157       .  T
C1320      N1325   1.157       .  T
C1321      N1323   1.157       .  T
C1322      N1324   1.158       .  T
C1327      C3088   1.413       .  A
C1327      C1332   1.414       .  A
C1328      C3087   1.411   1_455  A
C1328      C1329   1.420       .  A
C1328      C1333   1.451       .  S
C1329      C3090   1.423   1_455  A
C1329      C1336   1.446       .  S
C1330      C3089   1.424       .  A
C1330      C1331   1.418       .  A
C1331      C1332   1.415       .  A
C1331      C1334   1.450       .  S
C1332      C1335   1.451       .  S
C1333      N1340   1.157       .  T
C1334      N1339   1.157       .  T
C1335      N1337   1.157       .  T
C1336      N1338   1.157       .  T
C1341      C3102   1.423       .  A
C1341      C1346   1.414   1_655  A
C1341      C2942   1.495       .  S
C1342      C3101   1.426       .  A
C1342      C1343   1.409       .  A
C1342      C1347   1.449       .  S
C1343      C3104   1.409       .  A
C1343      C1350   1.452       .  S
C1344      C3103   1.409   1_455  A
C1344      C1345   1.417       .  A
C1345      C1346   1.411       .  A
C1345      C1348   1.450       .  S
C1346      C1349   1.451       .  S
C1347      N1354   1.157       .  T
C1348      N1353   1.156       .  T
C1349      N1351   1.157       .  T
C1350      N1352   1.157       .  T
C1355      C3116   1.417       .  A
C1355      C1360   1.420       .  A
C1356      C3115   1.414       .  A
C1356      C1357   1.412       .  A
C1356      C1361   1.450       .  S
C1357      C1358   1.412       .  A
C1357      C1364   1.450       .  S
C1358      C3119   1.405   1_455  A
C1359      C3118   1.406       .  A
C1359      C1360   1.407       .  A
C1359      C1362   1.452       .  S
C1360      C1363   1.448       .  S
C1361      N1368   1.157       .  T
C1362      N1367   1.157       .  T
C1363      N1365   1.156       .  T
C1364      N1366   1.157       .  T
C1369      C1374   1.415       .  A
C1370      C1371   1.407       .  A
C1370      C1375   1.450       .  S
C1371      C1378   1.451       .  S
C1372      C1373   1.413       .  A
C1373      C1374   1.413       .  A
C1373      C1376   1.451       .  S
C1374      C1377   1.450       .  S
C1375      N1382   1.156       .  T
C1376      N1381   1.157       .  T
C1377      N1379   1.157       .  T
C1378      N1380   1.157       .  T
C1383      C1384   1.407       .  A
C1383      C1388   1.409   1_545  A
C1384      C1385   1.409       .  A
C1385      C1386   1.413       .  A
C1385      C1392   1.450       .  S
C1386      C1387   1.413   1_545  A
C1387      C1388   1.408       .  A
C1387      C1390   1.450       .  S
C1388      C1391   1.452       .  S
C1389      N1396   1.157       .  T
C1390      N1395   1.157       .  T
C1391      N1393   1.157       .  T
C1392      N1394   1.157       .  T
C1397      C1398   1.416       .  A
C1398      C1399   1.407       .  A
C1398      C1403   1.446       .  S
C1399      C1406   1.453       .  S
C1400      C1401   1.410       .  A
C1401      C1402   1.412       .  A
C1401      C1404   1.452       .  S
C1402      C1405   1.450       .  S
C1403      N1410   1.155       .  T
C1404      N1409   1.157       .  T
C1405      N1407   1.157       .  T
C1406      N1408   1.157       .  T
C1411      C1416   1.410   1_545  A
C1412      C1413   1.415       .  A
C1412      C1417   1.451       .  S
C1413      C1420   1.450       .  S
C1414      C1415   1.412   1_545  A
C1415      C1416   1.410       .  A
C1415      C1418   1.450       .  S
C1416      C1419   1.452       .  S
C1417      N1424   1.157       .  T
C1418      N1423   1.157       .  T
C1419      N1421   1.157       .  T
C1420      N1422   1.157       .  T
C1425      C1426   1.421       .  A
C1425      C3190   1.416       .  A
C1426      C1427   1.408       .  A
C1426      C1431   1.447       .  S
C1427      C3188   1.406       .  A
C1427      C1434   1.452       .  S
C1428      C3187   1.407   1_455  A
C1428      C1429   1.414       .  A
C1429      C1430   1.414       .  A
C1429      C1432   1.451       .  S
C1430      C3185   1.416       .  A
C1430      C1433   1.450       .  S
C1431      N1438   1.156       .  T
C1432      N1437   1.157       .  T
C1433      N1435   1.157       .  T
C1434      N1436   1.157       .  T
C1439      C3200   1.416       .  A
C1439      C1444   1.420       .  A
C1440      C3199   1.414   1_455  A
C1440      C1441   1.408       .  A
C1440      C1445   1.451       .  S
C1441      C3202   1.413       .  A
C1441      C1448   1.450       .  S
C1442      C3201   1.411       .  A
C1442      C1443   1.406       .  A
C1442      C3014   1.485       .  S
C1443      C1444   1.403       .  A
C1443      C1446   1.452       .  S
C1444      C1447   1.450       .  S
C1445      N1452   1.157       .  T
C1446      N1451   1.157       .  T
C1447      N1449   1.157       .  T
C1448      N1450   1.157       .  T
C1453      C1454   1.416       .  A
C1453      C1458   1.421       .  A
C1454      C1455   1.425       .  A
C1454      C1459   1.449       .  S
C1455      C1456   1.420       .  A
C1455      C1462   1.449       .  S
C1456      C1457   1.411       .  A
C1457      C1458   1.414       .  A
C1457      C1460   1.453       .  S
C1458      C1461   1.450       .  S
C1459      N1466   1.158       .  T
C1460      N3225   1.157       .  T
C1461      N1463   1.157       .  T
C1462      N1464   1.157       .  T
N1465      C3220   1.157       .  T
C1467      C1468   1.413       .  A
C1467      C1472   1.418       .  A
C1468      C1469   1.419       .  A
C1468      C1473   1.452       .  S
C1469      C1470   1.431       .  A
C1469      C1476   1.451       .  S
C1470      C1471   1.420       .  A
C1471      C1472   1.417       .  A
C1471      C1474   1.451       .  S
C1472      C1475   1.451       .  S
C1473      N1480   1.157       .  T
C1474      N1479   1.158       .  T
C1475      N1477   1.157       .  T
C1476      N1478   1.157       .  T
C1481      C1482   1.405       .  A
C1481      C1486   1.411       .  A
C1482      C1483   1.404       .  A
C1482      C1487   1.453       .  S
C1483      C1484   1.422       .  A
C1483      C1490   1.449       .  S
C1484      C1485   1.415       .  A
C1485      C1486   1.410       .  A
C1485      C1488   1.449       .  S
C1486      C1489   1.451       .  S
C1487      N1494   1.157       .  T
C1488      N1493   1.157       .  T
C1489      N1491   1.157       .  T
C1490      N1492   1.156       .  T
C1495      C1496   1.424       .  A
C1495      C1500   1.416       .  A
C1496      C1497   1.412       .  A
C1496      C1501   1.448       .  S
C1497      C1498   1.410       .  A
C1497      C1504   1.452       .  S
C1498      C1499   1.413       .  A
C1499      C1500   1.412       .  A
C1499      C1502   1.452       .  S
C1500      C1503   1.448       .  S
C1501      N1508   1.157       .  T
C1502      N1507   1.157       .  T
C1503      N1505   1.156       .  T
C1504      N1506   1.158       .  T
C1509      C1510   1.416       .  A
C1509      C1514   1.415       .  A
C1510      C1511   1.411       .  A
C1510      C1515   1.445       .  S
C1511      C1512   1.409       .  A
C1511      C1518   1.452       .  S
C1512      C1513   1.413       .  A
C1513      C1514   1.414       .  A
C1513      C1516   1.450       .  S
C1514      C1517   1.450       .  S
C1515      N1522   1.155       .  T
C1516      N1521   1.157       .  T
C1517      N1519   1.157       .  T
C1518      N1520   1.157       .  T
C1523      C1524   1.411       .  A
C1523      C1528   1.409       .  A
C1524      C1525   1.405       .  A
C1524      C1529   1.451       .  S
C1525      C1526   1.408       .  A
C1525      C1532   1.452       .  S
C1526      C1527   1.408       .  A
C1527      C1528   1.403       .  A
C1527      C1530   1.452       .  S
C1528      C1531   1.450       .  S
C1529      N1536   1.157       .  T
C1530      N1535   1.157       .  T
C1531      N1533   1.157       .  T
C1532      N1534   1.157       .  T
C1537      C1538   1.412       .  A
C1537      C3302   1.414       .  A
C1538      C1539   1.415       .  A
C1538      C1543   1.448       .  S
C1539      C1540   1.417       .  A
C1539      C1546   1.448       .  S
C1540      C2706   1.508       .  S
C1540      C3301   1.421       .  A
C1541      C3300   1.421       .  A
C1541      C1542   1.411       .  A
C1541      C1544   1.452       .  S
C1542      C3297   1.411       .  A
C1542      C1545   1.451       .  S
C1543      N1550   1.157       .  T
C1544      N1549   1.157       .  T
C1545      N1547   1.157       .  T
C1546      N1548   1.157       .  T
C1551      C2699   1.565       .  S
C1551      C3312   1.427       .  A
C1551      C1556   1.427       .  A
C1552      C3311   1.427   1_455  A
C1552      C1553   1.421       .  A
C1552      C1557   1.450       .  S
C1553      C3314   1.416   1_455  A
C1553      C1560   1.448       .  S
C1554      C3313   1.414       .  A
C1554      C1555   1.417       .  A
C1555      C1556   1.415       .  A
C1555      C1558   1.452       .  S
C1556      C1559   1.452       .  S
C1557      N1564   1.157       .  T
C1558      N1563   1.157       .  T
C1559      N1561   1.157       .  T
C1560      N1562   1.156       .  T
C1565      C1566   1.418       .  A
C1565      C1570   1.412       .  A
C1566      C1567   1.424       .  A
C1566      C1571   1.446       .  S
C1567      C1568   1.414       .  A
C1567      C1574   1.450       .  S
C1568      C1569   1.419       .  A
C1569      C1570   1.413       .  A
C1569      C1572   1.452       .  S
C1570      C1573   1.451       .  S
C1571      N1578   1.157       .  T
C1572      N1577   1.157       .  T
C1573      N1575   1.157       .  T
C1574      N1576   1.157       .  T
C1579      C1580   1.436       .  A
C1579      C1584   1.417       .  A
C1580      C1581   1.421       .  A
C1580      C1585   1.452       .  S
C1581      C1582   1.410       .  A
C1581      C1588   1.451       .  S
C1582      C1583   1.425       .  A
C1583      C1584   1.423       .  A
C1583      C1586   1.448       .  S
C1584      C1587   1.451       .  S
C1585      N1592   1.157       .  T
C1586      N1591   1.156       .  T
C1587      N1589   1.158       .  T
C1588      N1590   1.157       .  T
C1593      C1594   1.413       .  A
C1594      C1595   1.418       .  A
C1594      C1599   1.447       .  S
C1595      C1602   1.445       .  S
C1596      C1597   1.418   1_545  A
C1597      C1598   1.414       .  A
C1597      C1600   1.450       .  S
C1598      C1601   1.453       .  S
C1599      N1606   1.158       .  T
C1600      N1605   1.157       .  T
C1601      N1603   1.157       .  T
C1602      N1604   1.156       .  T
C1607      C1612   1.403       .  A
C1608      C1609   1.416       .  A
C1608      C1613   1.446       .  S
C1609      C1616   1.451       .  S
C1610      C1611   1.438       .  A
C1611      C1612   1.419       .  A
C1611      C1614   1.452       .  S
C1612      C1615   1.450       .  S
C1613      N1620   1.155       .  T
C1614      N1619   1.157       .  T
C1615      N1617   1.156       .  T
C1616      N1618   1.158       .  T
C1621      C1622   1.410       .  A
C1621      C1626   1.412       .  A
C1622      C1623   1.409       .  A
C1622      C1627   1.453       .  S
C1623      C1624   1.427       .  A
C1623      C1630   1.452       .  S
C1624      C1625   1.428       .  A
C1625      C1626   1.421       .  A
C1625      C1628   1.447       .  S
C1626      C1629   1.452       .  S
C1627      N1634   1.157       .  T
C1628      N1633   1.158       .  T
C1629      N1631   1.157       .  T
C1635      C1636   1.431       .  A
C1635      C1640   1.430       .  A
C1636      C1637   1.413       .  A
C1636      C1641   1.449       .  S
C1637      C1638   1.405       .  A
C1637      C1644   1.450       .  S
C1638      C1639   1.407       .  A
C1639      C1640   1.410       .  A
C1639      C1642   1.452       .  S
C1640      C1643   1.454       .  S
C1641      N1648   1.158       .  T
C1642      N1647   1.157       .  T
C1643      N1645   1.158       .  T
C1644      N1646   1.155       .  T
C1649      C1650   1.410       .  A
C1649      C1654   1.410       .  A
C1650      C1651   1.404       .  A
C1650      C1655   1.450       .  S
C1651      C1652   1.409       .  A
C1651      C1658   1.452       .  S
C1652      C1653   1.404       .  A
C1653      C1654   1.401       .  A
C1653      C1656   1.452       .  S
C1654      C1657   1.450       .  S
C1655      N1662   1.157       .  T
C1656      N1661   1.157       .  T
C1657      N1659   1.157       .  T
C1658      N1660   1.157       .  T
C1663      C1664   1.409       .  A
C1663      C1668   1.411       .  A
C1664      C1665   1.407       .  A
C1664      C1669   1.452       .  S
C1665      C1666   1.413       .  A
C1665      C1672   1.447       .  S
C1666      C1667   1.411       .  A
C1667      C1668   1.409       .  A
C1667      C1670   1.450       .  S
C1668      C1671   1.450       .  S
C1669      N1676   1.157       .  T
C1670      N1675   1.157       .  T
C1671      N1673   1.157       .  T
C1672      N1674   1.155       .  T
C1677      C1678   1.415       .  A
C1677      C1682   1.407       .  A
C1678      C1679   1.412       .  A
C1678      C1683   1.450       .  S
C1679      C1680   1.416       .  A
C1679      C1686   1.451       .  S
C1680      C1681   1.426       .  A
C1681      C1682   1.409       .  A
C1681      C1684   1.450       .  S
C1682      C1685   1.453       .  S
C1683      N1690   1.157       .  T
C1684      N1689   1.157       .  T
C1685      N1687   1.157       .  T
C1686      N1688   1.157       .  T
C1691      C1692   1.412       .  A
C1691      C1696   1.409       .  A
C1692      C1693   1.409       .  A
C1692      C1697   1.451       .  S
C1693      C1694   1.415       .  A
C1693      C1700   1.450       .  S
C1694      C1695   1.419       .  A
C1695      C1696   1.407       .  A
C1695      C1698   1.449       .  S
C1696      C1699   1.452       .  S
C1697      N1704   1.157       .  T
C1698      N1703   1.156       .  T
C1699      N1701   1.157       .  T
C1700      N1702   1.157       .  T
C1705      C1710   1.409       .  A
C1706      C1707   1.423       .  A
C1706      C1711   1.448       .  S
C1707      C1708   1.417       .  A
C1707      C1714   1.449       .  S
C1709      C1710   1.413       .  A
C1709      C1712   1.450       .  S
C1710      C1713   1.454       .  S
C1711      N1718   1.157       .  T
C1712      N1717   1.157       .  T
C1713      N1715   1.157       .  T
C1714      N1716   1.157       .  T
C1719      C1724   1.423       .  A
C1720      C1721   1.420       .  A
C1720      C1725   1.452       .  S
C1721      C1728   1.449       .  S
C1722      C1723   1.418       .  A
C1723      C1724   1.420       .  A
C1723      C1726   1.450       .  S
C1724      C1727   1.451       .  S
C1725      N1732   1.158       .  T
C1726      N1731   1.157       .  T
C1727      N1729   1.157       .  T
C1728      N1730   1.157       .  T
C1733      C1734   1.422       .  A
C1733      C1738   1.420       .  A
C1734      C1735   1.420       .  A
C1734      C1739   1.447       .  S
C1735      C1736   1.413       .  A
C1735      C1742   1.451       .  S
C1736      C1737   1.414       .  A
C1737      C1738   1.413       .  A
C1737      C1740   1.452       .  S
C1738      C1741   1.451       .  S
C1739      N1746   1.157       .  T
C1740      N1745   1.157       .  T
C1741      N1743   1.157       .  T
C1742      N1744   1.157       .  T
C1747      C1748   1.416       .  A
C1747      C1752   1.413       .  A
C1748      C1749   1.416       .  A
C1748      C1753   1.451       .  S
C1749      C1750   1.424       .  A
C1749      C1756   1.453       .  S
C1750      C1751   1.429       .  A
C1751      C1752   1.420       .  A
C1751      C1754   1.449       .  S
C1752      C1755   1.451       .  S
C1753      N1760   1.157       .  T
C1754      N1759   1.158       .  T
C1755      N1757   1.158       .  T
C1756      N1758   1.158       .  T
C1761      C1762   1.519       .  S
C1761      C1767   1.550       .  S
C1761      C1765   1.546       .  S
C1761      C2630   1.561       .  S
C1762      H1769   1.087       .  S
C1762      C2643   1.355       .  D
C1763      C1764   1.566   1_565  S
C1763      C2642   1.358       .  D
C1763      C2585   1.507       .  S
C1764      C1768   1.550       .  S
C1764      C1766   1.559   1_545  S
C1764      H1770   1.102       .  S
C1765      H1771   1.078       .  S
C1765      C2646   1.371       .  D
C1766      C2645   1.370       .  D
C1766      C2602   1.526       .  S
C1767      H2652   1.085       .  S
C1767      C2648   1.378       .  D
C1768      C2647   1.376   1_545  D
C1768      C2613   1.526       .  S
H1772      C2647   1.084       .  S
N1773      H1805   1.042   1_655  S
N1773      C1777   1.347       .  A
N1774      C1781   1.346   1_554  A
N1774      C1782   1.346       .  A
N1775      H1806   1.040       .  S
N1775      C1779   1.351       .  A
N1776      C1783   1.347   1_554  A
N1776      C1784   1.345       .  A
C1777      C1785   1.388       .  A
C1777      C1793   1.405       .  A
C1778      C1794   1.405       .  A
C1778      C1786   1.386       .  A
C1779      C1787   1.387       .  A
C1779      C1796   1.411       .  A
C1780      C1795   1.412       .  A
C1780      C1788   1.388       .  A
C1781      C1793   1.408       .  A
C1781      C1789   1.386       .  A
C1782      C1796   1.407       .  A
C1782      C1790   1.386       .  A
C1783      C1791   1.387       .  A
C1783      C1794   1.410       .  A
C1784      C1792   1.386       .  A
C1784      C1795   1.406       .  A
C1785      H1797   1.082       .  S
C1786      H1798   1.082       .  S
C1787      H1799   1.082       .  S
C1788      H1800   1.082       .  S
C1789      C1790   1.379   1_556  A
C1789      H1801   1.082       .  S
C1790      H1802   1.082       .  S
C1791      C1792   1.380   1_556  A
C1791      H1803   1.082       .  S
C1792      H1804   1.083       .  S
C1793      C2571   1.483       .  S
C1794      C2557   1.490       .  S
C1795      C2529   1.482       .  S
C1796      C2543   1.488       .  S
C1807      C1808   1.551       .  S
C1807      C1813   1.537       .  S
C1807      C1811   1.528       .  S
C1807      C2515   1.566       .  S
C1808      H1815   1.080       .  S
C1808      C2689   1.362       .  D
C1809      C1810   1.548   1_565  S
C1809      C2688   1.364       .  D
C1809      C2487   1.511   1_565  S
C1810      C1814   1.552       .  S
C1810      C1812   1.566   1_545  S
C1810      H1816   1.104       .  S
C1811      H1817   1.086       .  S
C1811      C2692   1.362       .  D
C1812      C2691   1.359       .  D
C1812      C2473   1.504       .  S
C1813      H2698   1.085       .  S
C1813      C2694   1.378       .  D
C1814      C2693   1.376   1_545  D
C1814      C2504   1.526       .  S
H1818      C2693   1.085       .  S
C1819      C1825   1.545       .  S
C1819      C1823   1.541       .  S
C1820      H1827   1.086       .  S
C1820      C1821   1.367       .  D
C1821      C2462   1.517       .  S
C1822      C1826   1.549       .  S
C1822      C1824   1.548       .  S
C1822      H1828   1.107       .  S
C1823      H1829   1.082       .  S
C1823      C1824   1.365       .  D
C1824      C2445   1.502       .  S
C1825      H1830   1.084       .  S
C1825      C1826   1.371       .  D
N1831      H1863   1.041       .  S
N1831      C1836   1.349   1_565  A
N1831      C2715   1.354       .  A
N1832      C1839   1.352   1_556  A
N1832      C1840   1.348       .  A
N1833      H1864   1.040       .  S
N1833      C1838   1.354   1_565  A
N1833      C2717   1.348       .  A
N1834      C1841   1.346   1_556  A
N1834      C1842   1.349       .  A
C1835      N2711   1.352       .  A
C1835      C1843   1.386       .  A
C1835      C1851   1.410       .  A
C1836      C1852   1.412       .  A
C1836      C1844   1.389       .  A
C1837      N2713   1.351       .  A
C1837      C1845   1.388       .  A
C1837      C1854   1.411       .  A
C1838      C1853   1.412       .  A
C1838      C1846   1.386       .  A
C1839      C1851   1.415       .  A
C1839      C1847   1.386       .  A
C1840      C1854   1.409       .  A
C1840      C1848   1.386       .  A
C1841      C1849   1.388       .  A
C1841      C1852   1.411       .  A
C1842      C1850   1.385       .  A
C1842      C1853   1.410       .  A
C1843      C2724   1.375       .  A
C1843      H1855   1.083       .  S
C1844      C2723   1.372   1_545  A
C1844      H1856   1.082       .  S
C1845      C2726   1.370       .  A
C1845      H1857   1.082       .  S
C1846      C2725   1.370   1_545  A
C1846      H1858   1.082       .  S
C1847      C1848   1.378   1_554  A
C1847      H1859   1.082       .  S
C1848      H1860   1.082       .  S
C1849      C1850   1.378   1_554  A
C1849      H1861   1.082       .  S
C1850      H1862   1.082       .  S
C1851      C2378   1.505       .  S
C1852      C2361   1.486       .  S
C1853      C2392   1.499       .  S
C1854      C2403   1.485       .  S
O1865     Zr1877   2.463       .  S
O1865      C1867   1.292       .  A
O1866     Zr1903   2.381       .  S
O1866      C1867   1.278       .  A
C1867      C2574   1.484       .  S
O1868     Zr1880   2.429       .  S
O1868      C1870   1.285       .  A
O1869     Zr1904   2.455       .  S
O1869      C1870   1.292       .  A
C1870      C2518   1.488       .  S
O1871     Zr1880   2.430       .  S
O1871      C1873   1.284       .  A
O1872     Zr1903   2.421       .  S
O1872      C1873   1.285       .  A
C1873      C2406   1.470       .  S
O1874     Zr1877   2.415       .  S
O1874      C1876   1.282       .  A
O1875     Zr1904   2.492       .  S
O1875      C1876   1.301       .  A
C1876      C2459   1.524       .  S
Zr1877     O1878   2.434       .  S
Zr1877     O1879   2.436       .  S
Zr1877     O1883   2.365       .  S
Zr1877     O1884   2.379       .  S
Zr1877     O1907   2.380       .  S
Zr1877     O1909   2.350       .  S
O1878      H1921   0.990       .  S
O1879      H1920   0.990       .  S
O1879      H1924   0.989       .  S
Zr1880     O1881   2.436       .  S
Zr1880     O1882   2.436       .  S
Zr1880     O1884   2.365       .  S
Zr1880     O1883   2.370       .  S
Zr1880     O1908   2.376       .  S
Zr1880     O1910   2.373       .  S
O1881      H1922   0.990       .  S
O1881      H1925   0.990       .  S
O1882      H1915   0.990       .  S
O1883     Zr1903   2.373       .  S
O1884     Zr1904   2.394       .  S
O1884      H1911   0.966       .  S
O1885     Zr1897   2.448       .  S
O1885      C1887   1.290       .  A
O1886     Zr1904   2.448       .  S
O1886      C1887   1.292       .  A
C1887      C2501   1.500       .  S
O1888     Zr1900   2.463       .  S
O1888      C1890   1.291       .  A
O1889     Zr1903   2.388       .  S
O1889      C1890   1.279       .  A
C1890      C2560   1.487       .  S
O1891     Zr1900   2.405       .  S
O1891      C1893   1.282       .  A
O1892     Zr1904   2.483       .  S
O1892      C1893   1.299       .  A
C1893      C2448   1.495       .  S
O1894     Zr1897   2.463       .  S
O1894      C1896   1.293       .  A
O1895     Zr1903   2.412       .  S
O1895      C1896   1.284       .  A
C1896      C2389   1.490       .  S
Zr1897     O1898   2.432       .  S
Zr1897     O1899   2.434       .  S
Zr1897     O1905   2.376       .  S
Zr1897     O1906   2.372       .  S
Zr1897     O1909   2.366       .  S
Zr1897     O1907   2.377       .  S
O1898      H1918   0.989       .  S
O1898      H1923   0.990       .  S
O1899      H1919   0.990       .  S
Zr1900     O1901   2.433       .  S
Zr1900     O1902   2.435       .  S
Zr1900     O1906   2.356       .  S
Zr1900     O1905   2.381       .  S
Zr1900     O1910   2.387       .  S
Zr1900     O1908   2.358       .  S
O1901      H1917   0.990       .  S
O1902      H1916   0.989       .  S
O1902      H1926   0.990       .  S
Zr1903     O1906   2.374       .  S
Zr1903     O1908   2.372       .  S
Zr1903     O1909   2.374       .  S
Zr1904     O1905   2.406       .  S
Zr1904     O1907   2.395       .  S
Zr1904     O1910   2.396       .  S
O1905      H1913   0.964       .  S
O1908      H1912   0.970       .  S
O1909      H1914   0.966       .  S
O1927     Zr1939   2.418       .  S
O1927      C1929   1.283       .  A
O1928     Zr1965   2.482       .  S
O1928      C1929   1.299       .  A
C1929      C2347   1.520       .  S
O1930     Zr1942   2.490       .  S
O1930      C1932   1.297       .  A
O1931     Zr1966   2.387       .  S
O1931      C1932   1.278       .  A
C1932      C2375   1.505       .  S
O1933     Zr1942   2.434       .  S
O1933      C1935   1.288       .  A
O1934     Zr1965   2.451       .  S
O1934      C1935   1.293       .  A
C1935      C2627   1.496       .  S
O1936     Zr1939   2.461       .  S
O1936      C1938   1.291       .  A
O1937     Zr1966   2.400       .  S
O1937      C1938   1.281       .  A
C1938      C2546   1.482       .  S
Zr1939     O1940   2.434       .  S
Zr1939     O1941   2.433       .  S
Zr1939     O1945   2.382       .  S
Zr1939     O1946   2.367       .  S
Zr1939     O1969   2.346       .  S
Zr1939     O1971   2.382       .  S
O1940      H1983   0.990       .  S
O1941      H1982   0.989       .  S
O1941      H1986   0.990       .  S
Zr1942     O1943   2.430       .  S
Zr1942     O1944   2.435       .  S
Zr1942     O1946   2.363       .  S
Zr1942     O1945   2.380       .  S
Zr1942     O1970   2.384       .  S
Zr1942     O1972   2.366       .  S
O1943      H1984   0.989       .  S
O1943      H1987   0.990       .  S
O1944      H1977   0.990       .  S
O1945     Zr1965   2.397       .  S
O1946     Zr1966   2.367       .  S
O1946      H1973   0.963       .  S
O1947     Zr1959   2.473       .  S
O1947      C1949   1.295       .  A
O1948     Zr1966   2.372       .  S
O1948      C1949   1.277       .  A
C1949      C2364   1.483       .  S
O1950     Zr1962   2.413       .  S
O1950      C1952   1.283       .  A
O1951     Zr1965   2.495       .  S
O1951      C1952   1.300       .  A
C1952      C2333   1.510       .  S
O1953     Zr1962   2.430       .  S
O1953      C1955   1.283       .  A
O1954     Zr1966   2.408       .  S
O1954      C1955   1.283       .  A
C1955      C2532   1.465       .  S
O1956     Zr1959   2.441       .  S
O1956      C1958   1.289       .  A
O1957     Zr1965   2.459       .  S
O1957      C1958   1.294       .  A
C1958      C2616   1.505       .  S
Zr1959     O1960   2.436       .  S
Zr1959     O1961   2.434       .  S
Zr1959     O1967   2.362       .  S
Zr1959     O1968   2.379       .  S
Zr1959     O1971   2.380       .  S
Zr1959     O1969   2.364       .  S
O1960      H1980   0.989       .  S
O1960      H1985   0.990       .  S
O1961      H1981   0.990       .  S
Zr1962     O1963   2.436       .  S
Zr1962     O1964   2.431       .  S
Zr1962     O1968   2.376       .  S
Zr1962     O1967   2.366       .  S
Zr1962     O1972   2.371       .  S
Zr1962     O1970   2.374       .  S
O1963      H1979   0.990       .  S
O1964      H1978   0.990       .  S
O1964      H1988   0.990       .  S
Zr1965     O1968   2.391       .  S
Zr1965     O1970   2.398       .  S
Zr1965     O1971   2.403       .  S
Zr1966     O1967   2.375       .  S
Zr1966     O1969   2.368       .  S
Zr1966     O1972   2.364       .  S
O1967      H1975   0.965       .  S
O1970      H1974   0.965       .  S
O1971      H1976   0.963       .  S
O1989     Zr2001   2.402       .  S
O1989      C1991   1.278       .  A
O1990      C1991   1.302       .  A
C1991      C2490   1.527       .  S
O1992     Zr2004   2.494   1_455  S
O1992      C1994   1.298   1_455  A
O1993     Zr2028   2.387       .  S
O1993      C1994   1.279       .  A
C1994      C2305   1.498   1_655  S
O1995     Zr2004   2.458   1_455  S
O1995      C1997   1.293       .  A
O1996     Zr2027   2.447   1_455  S
O1996      C1997   1.291       .  A
C1997      C2417   1.506       .  S
O1998     Zr2001   2.456       .  S
O1998      C2000   1.290       .  A
O1999      C2000   1.286       .  A
C2000      C2277   1.493       .  S
Zr2001     O2002   2.434       .  S
Zr2001     O2883   2.435   1_545  S
Zr2001     O2007   2.377       .  S
Zr2001     O2008   2.362       .  S
Zr2001     O2911   2.348   1_545  S
Zr2001     O2913   2.385   1_545  S
O2002      H2045   0.990       .  S
O2003     Zr2881   2.434       .  S
O2003      H2044   0.990       .  S
O2003      H2048   0.990       .  S
Zr2004     O2006   2.435       .  S
Zr2004     O2032   2.389       .  S
Zr2004     O2034   2.369       .  S
O2005      H2046   0.989       .  S
O2005      H2049   0.990       .  S
O2006      H2039   0.990       .  S
O2008      H2035   0.967       .  S
O2009     Zr2021   2.459       .  S
O2009      C2011   1.291       .  A
O2010     Zr2908   2.385       .  S
O2010      C2011   1.279       .  A
C2011      C2319   1.485   1_655  S
O2012     Zr2024   2.415       .  S
O2012      C2894   1.282       .  A
O2013     Zr2027   2.488       .  S
O2013      C2894   1.299       .  A
C2014      C2476   1.502       .  S
C2014      O2892   1.283       .  A
C2014      O2893   1.301       .  A
O2015     Zr2024   2.441       .  S
O2015      C2897   1.285       .  A
O2016     Zr2028   2.405       .  S
O2016      C2897   1.282       .  A
C2017      C2291   1.480       .  S
C2017      O2895   1.288       .  A
C2017      O2896   1.285       .  A
O2018     Zr2021   2.432       .  S
O2018      C2020   1.287       .  A
O2019     Zr2907   2.455       .  S
O2019      C2020   1.293       .  A
C2020      C2434   1.505       .  S
Zr2021     O2022   2.433       .  S
Zr2021     O2029   2.367       .  S
Zr2021     O2030   2.375       .  S
O2022      H2042   0.990       .  S
O2022      H2047   0.990       .  S
O2023      H2043   0.990       .  S
Zr2024     O2905   2.435   1_545  S
Zr2024     O2026   2.435       .  S
Zr2024     O2910   2.379   1_545  S
Zr2024     O2909   2.372   1_545  S
Zr2024     O2034   2.368       .  S
Zr2024     O2032   2.380       .  S
O2025     Zr2904   2.433       .  S
O2025      H2041   0.990       .  S
O2026      H2040   0.990       .  S
O2026      H2050   0.990       .  S
Zr2027     O2899   2.455   1_545  S
Zr2027     O2910   2.394   1_545  S
Zr2027     O2032   2.409       .  S
Zr2028     O2890   2.385   1_545  S
Zr2028     O2909   2.378   1_545  S
Zr2028     O2034   2.379       .  S
O2029     Zr2904   2.370       .  S
O2029     Zr2908   2.375       .  S
O2029      H2037   0.967       .  S
O2030     Zr2904   2.380       .  S
O2030     Zr2907   2.392       .  S
O2031     Zr2881   2.352       .  S
O2032      H2036   0.962       .  S
O2033     Zr2881   2.385       .  S
O2033      H2038   0.967       .  S
O2051     Zr2063   2.447   1_655  S
O2051      C2053   1.289       .  A
O2052     Zr2969   2.454       .  S
O2052      C2053   1.293       .  A
C2053      C2207   1.499       .  S
O2054     Zr2066   2.464       .  S
O2054      C2936   1.292       .  A
O2055      C2936   1.280       .  A
C2056      C3129   1.485       .  S
C2056      O2934   1.292       .  A
C2056      O2935   1.282       .  A
O2057     Zr2066   2.431       .  S
O2057      C2939   1.286       .  A
O2058      C2939   1.296       .  A
C2059      C2599   1.519       .  S
C2059      O2937   1.286       .  A
C2059      O2938   1.299       .  A
O2060     Zr2063   2.465       .  S
O2060      C2062   1.293       .  A
O2061     Zr2970   2.385   1_455  S
O2061      C2062   1.278       .  A
Zr2063     O2065   2.435   1_455  S
Zr2063     O2093   2.372   1_455  S
Zr2063     O2095   2.385   1_455  S
O2064      H2107   0.990       .  S
O2065      H2106   0.989       .  S
O2065      H2110   0.990       .  S
Zr2066     O2947   2.436       .  S
Zr2066     O2068   2.434       .  S
Zr2066     O2950   2.358       .  S
Zr2066     O2949   2.379       .  S
Zr2066     O2094   2.380       .  S
Zr2066     O2096   2.364       .  S
O2067     Zr2946   2.435       .  S
O2067      H2108   0.989       .  S
O2067      H2111   0.990       .  S
O2068      H2101   0.991       .  S
O2069     Zr2946   2.383       .  S
O2070     Zr2946   2.359       .  S
O2070      H2097   0.967       .  S
O2071     Zr2083   2.440       .  S
O2071      C2953   1.285       .  A
O2072     Zr2970   2.412       .  S
O2072      C2953   1.283       .  A
C2073      C2263   1.471       .  S
C2073      O2951   1.285       .  A
C2073      O2952   1.282       .  A
O2074     Zr2086   2.439       .  S
O2074      C2076   1.288       .  A
O2075     Zr2089   2.456       .  S
O2075      C2076   1.294       .  A
C2076      C2193   1.498       .  S
O2077     Zr2086   2.478       .  S
O2077      C2079   1.294       .  A
O2078     Zr2090   2.384       .  S
O2078      C2079   1.278       .  A
C2079      C2235   1.489   1_655  S
O2080     Zr2083   2.417       .  S
O2080      C2962   1.284       .  A
O2081     Zr2969   2.490       .  S
O2081      C2962   1.300       .  A
C2082      C2588   1.510       .  S
C2082      O2960   1.284       .  A
C2082      O2961   1.299       .  A
Zr2083     O2964   2.435   1_545  S
Zr2083     O2085   2.435       .  S
Zr2083     O2971   2.370   1_545  S
Zr2083     O2972   2.380   1_545  S
Zr2083     O2095   2.370       .  S
Zr2083     O2093   2.363       .  S
O2084     Zr2963   2.433       .  S
O2084      H2104   0.989       .  S
O2084      H2109   0.990       .  S
O2085      H2105   0.990       .  S
Zr2086     O2087   2.436       .  S
Zr2086     O2092   2.379       .  S
Zr2086     O2091   2.364       .  S
O2087      H2103   0.990       .  S
O2088      H2102   0.990       .  S
O2088      H2112   0.990       .  S
Zr2089     O2932   2.463       .  S
Zr2089     O2961   2.489       .  S
Zr2089     O2092   2.396       .  S
Zr2089     O2975   2.400       .  S
Zr2090     O2941   2.384       .  S
Zr2090     O2952   2.408       .  S
Zr2090     O2091   2.376       .  S
Zr2090     O2973   2.369       .  S
O2091     Zr2963   2.373       .  S
O2091      H2099   0.965       .  S
O2092     Zr2963   2.378       .  S
O2093     Zr2970   2.370       .  S
O2094      H2098   0.965       .  S
O2095     Zr2969   2.399       .  S
O2095      H2100   0.965       .  S
N2113      H2145   1.042       .  S
N2113      C2118   1.348       .  A
N2113      C2117   1.349       .  A
N2114      C2121   1.349       .  A
N2114      C2122   1.347       .  A
N2115      H2146   1.042       .  S
N2115      C2120   1.353       .  A
N2115      C2119   1.351       .  A
N2116      C2123   1.346       .  A
N2116      C2124   1.348       .  A
C2117      C2125   1.386       .  A
C2117      C2133   1.405       .  A
C2118      C2134   1.406       .  A
C2118      C2126   1.388       .  A
C2119      C2127   1.387       .  A
C2119      C2136   1.412       .  A
C2120      C2135   1.412       .  A
C2120      C2128   1.386       .  A
C2121      C2133   1.411       .  A
C2121      C2129   1.385       .  A
C2122      C2136   1.413       .  A
C2122      C2130   1.388       .  A
C2123      C2131   1.387       .  A
C2123      C2134   1.408       .  A
C2124      C2132   1.386       .  A
C2124      C2135   1.410       .  A
C2125      C2126   1.372       .  A
C2125      H2137   1.082       .  S
C2126      H2138   1.082       .  S
C2127      C2128   1.374       .  A
C2127      H2139   1.082       .  S
C2128      H2140   1.082       .  S
C2129      C2130   1.381       .  A
C2129      H2141   1.082       .  S
C2130      H2142   1.082       .  S
C2131      C2132   1.379       .  A
C2131      H2143   1.082       .  S
C2132      H2144   1.082       .  S
C2133      C2308   1.494       .  S
C2135      C2238   1.497       .  S
C2136      C2224   1.496       .  S
N2147      H2179   1.039       .  S
N2147      C2152   1.353       .  A
N2147      C2151   1.351       .  A
N2148      C2155   1.351       .  A
N2148      C2156   1.352       .  A
N2149      H2180   1.040       .  S
N2149      C2154   1.352       .  A
N2149      C2153   1.350       .  A
N2150      C2157   1.348       .  A
N2150      C2158   1.348       .  A
C2151      C2159   1.386       .  A
C2151      C2167   1.410       .  A
C2152      C2168   1.413       .  A
C2152      C2160   1.387       .  A
C2153      C2161   1.386       .  A
C2153      C2170   1.408       .  A
C2154      C2169   1.413       .  A
C2154      C2162   1.388       .  A
C2155      C2167   1.414       .  A
C2155      C2163   1.386       .  A
C2156      C2170   1.413       .  A
C2156      C2164   1.385       .  A
C2157      C2165   1.386       .  A
C2157      C2168   1.410       .  A
C2158      C2166   1.387       .  A
C2158      C2169   1.411       .  A
C2159      C2160   1.369       .  A
C2159      H2171   1.082       .  S
C2160      H2172   1.082       .  S
C2161      C2162   1.373       .  A
C2161      H2173   1.082       .  S
C2162      H2174   1.082       .  S
C2163      C2164   1.381       .  A
C2163      H2175   1.082       .  S
C2164      H2176   1.082       .  S
C2165      C2166   1.378       .  A
C2165      H2177   1.082       .  S
C2166      H2178   1.082       .  S
C2167      C2294   1.492       .  S
C2168      C2280   1.494       .  S
C2169      C2252   1.492       .  S
C2170      C2266   1.492       .  S
C2181      C2187   1.549       .  S
C2181      C2185   1.546       .  S
C2181      C2196   1.564       .  S
C2182      H2189   1.087       .  S
C2182      C2183   1.356       .  D
C2183      C2336   1.499       .  S
C2184      C2188   1.545       .  S
C2184      C2186   1.556       .  S
C2184      H2190   1.103       .  S
C2185      H2191   1.075       .  S
C2185      C2186   1.371       .  D
C2186      C2350   1.526       .  S
C2187      H2192   1.085       .  S
C2187      C2188   1.376       .  D
C2188      C2210   1.520       .  S
C2193      C2194   1.410       .  A
C2194      C2195   1.418       .  A
C2194      C2199   1.452       .  S
C2195      C2196   1.431       .  A
C2195      C2202   1.449       .  S
C2197      C2198   1.417       .  A
C2197      C2200   1.453       .  S
C2198      C2201   1.451       .  S
C2199      N2206   1.157       .  T
C2200      N2205   1.157       .  T
C2201      N2203   1.157       .  T
C2202      N2204   1.158       .  T
C2207      C2212   1.412       .  A
C2208      C2209   1.422       .  A
C2208      C2213   1.451       .  S
C2209      C2216   1.447       .  S
C2210      C2211   1.421       .  A
C2211      C2212   1.413       .  A
C2211      C2214   1.450       .  S
C2212      C2215   1.452       .  S
C2213      N2220   1.158       .  T
C2214      N2219   1.157       .  T
C2215      N2217   1.157       .  T
C2216      N2218   1.158       .  T
C2221      C2226   1.416       .  A
C2222      C2223   1.406       .  A
C2222      C2227   1.450       .  S
C2223      C2230   1.452       .  S
C2224      C2225   1.413       .  A
C2225      C2226   1.411       .  A
C2225      C2228   1.452       .  S
C2226      C2229   1.450       .  S
C2227      N2234   1.157       .  T
C2228      N2233   1.157       .  T
C2229      N2231   1.157       .  T
C2230      N2232   1.157       .  T
C2235      C2240   1.420   1_455  A
C2236      C2237   1.413       .  A
C2236      C2241   1.449       .  S
C2237      C2238   1.412       .  A
C2237      C2244   1.451       .  S
C2239      C2240   1.408       .  A
C2239      C2242   1.452       .  S
C2240      C2243   1.448       .  S
C2241      N2248   1.157       .  T
C2242      N2247   1.157       .  T
C2243      N2245   1.156       .  T
C2244      N2246   1.157       .  T
C2249      C3130   1.417       .  A
C2249      C2254   1.414       .  A
C2249      C2936   1.487       .  S
C2250      C3129   1.414       .  A
C2250      C2251   1.408       .  A
C2250      C2255   1.447       .  S
C2251      C3132   1.410   1_545  A
C2251      C2258   1.452       .  S
C2252      C3131   1.408       .  A
C2252      C2253   1.413       .  A
C2253      C2254   1.412       .  A
C2253      C2256   1.450       .  S
C2254      C2257   1.451       .  S
C2255      N2262   1.155       .  T
C2256      N2261   1.157       .  T
C2257      N2259   1.157       .  T
C2258      N2260   1.157       .  T
C2263      C2264   1.409       .  A
C2263      C2268   1.407       .  A
C2264      C2265   1.411       .  A
C2264      C3149   1.451       .  S
C2265      C2266   1.413       .  A
C2265      C2272   1.449       .  S
C2266      C2267   1.415       .  A
C2267      C2268   1.407       .  A
C2267      C2270   1.450       .  S
C2268      C2271   1.453       .  S
C2269      C3144   1.451       .  S
C2269      N2276   1.157       .  T
C2270      N2275   1.157       .  T
C2271      N2273   1.157       .  T
C2272      N2274   1.157       .  T
C2277      C2278   1.415       .  A
C2277      C3162   1.417   1_545  A
C2278      C2279   1.409       .  A
C2278      C2283   1.447       .  S
C2279      C3160   1.409   1_545  A
C2279      C2286   1.452       .  S
C2280      C3159   1.409       .  A
C2280      C2281   1.411       .  A
C2281      C2282   1.414       .  A
C2281      C2284   1.451       .  S
C2282      C3157   1.416       .  A
C2282      C2285   1.448       .  S
C2283      N2290   1.155       .  T
C2284      N2289   1.157       .  T
C2285      N2287   1.157       .  T
C2286      N2288   1.157       .  T
C2291      C3172   1.411       .  A
C2291      C2296   1.411       .  A
C2292      C3171   1.406       .  A
C2292      C2293   1.407       .  A
C2292      C2297   1.451       .  S
C2293      C3174   1.413       .  A
C2293      C2300   1.450       .  S
C2294      C3173   1.411       .  A
C2294      C2295   1.412       .  A
C2295      C2296   1.411       .  A
C2295      C2298   1.451       .  S
C2296      C2299   1.451       .  S
C2297      N2304   1.157       .  T
C2298      N2303   1.157       .  T
C2299      N2301   1.157       .  T
C2300      N2302   1.157       .  T
C2305      C2306   1.424   1_455  A
C2306      C2307   1.408       .  A
C2306      C2311   1.447       .  S
C2307      C2314   1.453       .  S
C2308      C2309   1.413       .  A
C2309      C2310   1.411       .  A
C2309      C2312   1.451       .  S
C2310      C2313   1.449       .  S
C2311      N2318   1.156       .  T
C2312      N2317   1.157       .  T
C2313      N2315   1.157       .  T
C2314      N2316   1.157       .  T
C2319      C2324   1.419   1_455  A
C2320      C2321   1.410       .  A
C2320      C2325   1.450       .  S
C2321      C2328   1.452       .  S
C2322      C2323   1.409   1_455  A
C2323      C2324   1.406       .  A
C2323      C2326   1.451       .  S
C2324      C2327   1.450       .  S
C2325      N2332   1.157       .  T
C2326      N2331   1.157       .  T
C2327      N2329   1.156       .  T
C2328      N2330   1.157       .  T
C2333      C2334   1.416       .  A
C2333      C2338   1.424       .  A
C2334      C2335   1.421       .  A
C2334      C2339   1.448       .  S
C2335      C2336   1.416       .  A
C2335      C2342   1.449       .  S
C2336      C2337   1.409       .  A
C2337      C2338   1.413       .  A
C2337      C2340   1.454       .  S
C2338      C2341   1.450       .  S
C2339      N2346   1.157       .  T
C2341      N2343   1.157       .  T
C2342      N2344   1.157       .  T
C2347      C2348   1.416       .  A
C2347      C2352   1.428       .  A
C2348      C2349   1.420       .  A
C2348      C2353   1.453       .  S
C2349      C2350   1.428       .  A
C2349      C2356   1.450       .  S
C2350      C2351   1.415       .  A
C2351      C2352   1.419       .  A
C2351      C2354   1.452       .  S
C2352      C2355   1.452       .  S
C2353      N2360   1.158       .  T
C2354      N2359   1.158   1_655  T
C2355      N2357   1.157       .  T
C2356      N2358   1.157       .  T
C2361      C2362   1.406       .  A
C2361      C2366   1.412       .  A
C2362      C2363   1.404       .  A
C2362      C2367   1.452       .  S
C2363      C2364   1.420       .  A
C2363      C2370   1.449       .  S
C2364      C2365   1.413       .  A
C2365      C2366   1.408       .  A
C2365      C2368   1.450       .  S
C2366      C2369   1.451       .  S
C2367      N2374   1.157       .  T
C2368      N2373   1.157       .  T
C2369      N2371   1.157       .  T
C2370      N2372   1.156       .  T
C2375      C2376   1.428       .  A
C2375      C2380   1.416       .  A
C2376      C2377   1.411       .  A
C2376      C2381   1.450       .  S
C2377      C2378   1.409       .  A
C2377      C2384   1.452       .  S
C2378      C2379   1.415       .  A
C2379      C2380   1.413       .  A
C2379      C2382   1.450       .  S
C2380      C2383   1.449       .  S
C2381      N2388   1.157       .  T
C2382      N2387   1.156       .  T
C2383      N2385   1.157       .  T
C2384      N2386   1.157       .  T
C2389      C2390   1.415       .  A
C2389      C2394   1.415       .  A
C2390      C2391   1.409       .  A
C2390      C2395   1.447       .  S
C2391      C2392   1.411       .  A
C2391      C2398   1.451       .  S
C2392      C2393   1.413       .  A
C2393      C2394   1.412       .  A
C2393      C2396   1.450       .  S
C2394      C2397   1.451       .  S
C2395      N2402   1.155       .  T
C2396      N2401   1.157       .  T
C2397      N2399   1.157       .  T
C2398      N2400   1.157       .  T
C2403      C2404   1.410       .  A
C2403      C2408   1.412       .  A
C2404      C2405   1.407       .  A
C2404      C2409   1.450       .  S
C2405      C2406   1.409       .  A
C2405      C2412   1.451       .  S
C2406      C2407   1.409       .  A
C2407      C2408   1.407       .  A
C2407      C2410   1.452       .  S
C2408      C2411   1.451       .  S
C2409      N2416   1.157       .  T
C2410      N2415   1.157       .  T
C2411      N2413   1.157       .  T
C2412      N2414   1.157       .  T
C2417      C2418   1.413   1_455  A
C2418      C2419   1.418       .  A
C2418      C2423   1.447       .  S
C2419      C2420   1.419   1_655  A
C2419      C2426   1.449       .  S
C2421      C2422   1.412       .  A
C2421      C2424   1.453       .  S
C2422      C2425   1.451       .  S
C2423      N2430   1.157       .  T
C2424      N2429   1.157       .  T
C2425      N2427   1.157       .  T
C2426      N2428   1.157       .  T
C2431      C2436   1.425       .  A
C2432      C2433   1.419       .  A
C2432      C2437   1.450       .  S
C2433      C2440   1.448       .  S
C2434      C2435   1.417       .  A
C2435      C2436   1.415       .  A
C2435      C2438   1.452       .  S
C2436      C2439   1.451       .  S
C2437      N2444   1.157       .  T
C2438      N2443   1.157       .  T
C2439      N2441   1.157       .  T
C2440      N2442   1.155       .  T
C2445      C2446   1.417       .  A
C2445      C2450   1.412       .  A
C2446      C2447   1.420       .  A
C2446      C2451   1.446       .  S
C2447      C2448   1.412       .  A
C2447      C2454   1.451       .  S
C2448      C2449   1.419       .  A
C2449      C2450   1.409       .  A
C2449      C2452   1.452       .  S
C2450      C2453   1.453       .  S
C2451      N2458   1.156       .  T
C2452      N2457   1.157       .  T
C2453      N2455   1.157       .  T
C2454      N2456   1.157       .  T
C2459      C2460   1.432       .  A
C2459      C2464   1.417       .  A
C2460      C2461   1.418       .  A
C2460      C2465   1.452       .  S
C2461      C2462   1.409       .  A
C2461      C2468   1.451       .  S
C2462      C2463   1.423       .  A
C2463      C2464   1.420       .  A
C2463      C2466   1.448       .  S
C2464      C2467   1.451       .  S
C2465      N2472   1.157       .  T
C2466      N2471   1.156       .  T
C2467      N2469   1.158       .  T
C2468      N2470   1.157   1_655  T
C2473      C2474   1.412   1_565  A
C2473      C3358   1.415       .  A
C2474      C2475   1.415       .  A
C2474      C2479   1.448       .  S
C2475      C3356   1.412       .  A
C2475      C2482   1.444       .  S
C2476      C3355   1.413       .  A
C2476      C2477   1.417       .  A
C2477      C2478   1.414       .  A
C2477      C2480   1.449       .  S
C2478      C3353   1.417       .  A
C2478      C2481   1.453       .  S
C2479      N2486   1.158       .  T
C2480      N2485   1.156       .  T
C2481      N2483   1.157       .  T
C2482      N2484   1.156       .  T
C2487      C3368   1.418       .  A
C2487      C2492   1.405       .  A
C2488      C3367   1.419       .  A
C2488      C2489   1.422       .  A
C2488      C2493   1.445       .  S
C2489      C3370   1.420       .  A
C2489      C2496   1.452       .  S
C2490      C3369   1.417       .  A
C2490      C2491   1.438       .  A
C2491      C2492   1.418       .  A
C2491      C2494   1.453       .  S
C2492      C2495   1.450       .  S
C2493      N2500   1.155       .  T
C2494      N2499   1.158   1_545  T
C2495      N2497   1.157       .  T
C2496      N2498   1.158       .  T
C2501      C2502   1.410       .  A
C2501      C2506   1.412       .  A
C2502      C2503   1.411       .  A
C2502      C2507   1.452       .  S
C2503      C2504   1.427       .  A
C2503      C2510   1.451       .  S
C2504      C2505   1.427       .  A
C2505      C2506   1.421       .  A
C2505      C2508   1.447       .  S
C2506      C2509   1.451       .  S
C2507      N2514   1.157       .  T
C2508      N2513   1.158       .  T
C2509      N2511   1.157       .  T
C2510      N3392   1.158       .  T
N2512      C3390   1.157       .  T
C2515      C2516   1.430       .  A
C2515      C2520   1.433       .  A
C2516      C2517   1.413       .  A
C2516      C2521   1.448       .  S
C2517      C2518   1.402       .  A
C2517      C2524   1.449       .  S
C2518      C2519   1.408       .  A
C2519      C2520   1.418       .  A
C2519      C2522   1.453       .  S
C2520      C2523   1.452       .  S
C2521      N2528   1.157       .  T
C2522      N2527   1.157       .  T
C2523      N2525   1.158       .  T
C2524      N2526   1.155       .  T
C2529      C2530   1.409       .  A
C2529      C2534   1.412       .  A
C2530      C2531   1.406       .  A
C2530      C2535   1.450       .  S
C2531      C2532   1.410       .  A
C2531      C2538   1.451       .  S
C2532      C2533   1.407       .  A
C2533      C2534   1.405       .  A
C2533      C2536   1.451       .  S
C2534      C2537   1.450       .  S
C2535      N2542   1.157       .  T
C2536      N2541   1.157       .  T
C2537      N2539   1.157       .  T
C2538      N2540   1.157       .  T
C2543      C2544   1.410       .  A
C2543      C2548   1.410       .  A
C2544      C2545   1.408       .  A
C2544      C2549   1.452       .  S
C2545      C2546   1.414       .  A
C2545      C2552   1.448       .  S
C2546      C2547   1.413       .  A
C2547      C2548   1.409       .  A
C2547      C2550   1.449       .  S
C2548      C2551   1.451       .  S
C2549      N2556   1.157       .  T
C2550      N2555   1.156       .  T
C2551      N2553   1.157       .  T
C2552      N2554   1.156       .  T
C2557      C2558   1.413       .  A
C2557      C2562   1.407       .  A
C2558      C2559   1.408       .  A
C2558      C2563   1.450       .  S
C2559      C2560   1.414       .  A
C2559      C2566   1.452       .  S
C2560      C2561   1.420       .  A
C2561      C2562   1.408       .  A
C2561      C2564   1.447       .  S
C2562      C2565   1.453       .  S
C2563      N2570   1.156       .  T
C2564      N2569   1.156       .  T
C2565      N2567   1.157       .  T
C2566      N2568   1.157       .  T
C2571      C2572   1.410       .  A
C2571      C2576   1.406       .  A
C2572      C2573   1.407       .  A
C2572      C2577   1.451       .  S
C2573      C2574   1.415       .  A
C2573      C2580   1.451       .  S
C2574      C2575   1.421       .  A
C2575      C2576   1.404       .  A
C2575      C2578   1.449       .  S
C2576      C2579   1.453       .  S
C2577      N2584   1.157       .  T
C2578      N2583   1.156       .  T
C2579      N2581   1.157       .  T
C2580      N2582   1.157       .  T
C2585      C3466   1.417   1_565  A
C2585      C2590   1.414       .  A
C2586      C3465   1.417       .  A
C2586      C2587   1.421       .  A
C2586      C2591   1.449       .  S
C2587      C2588   1.415       .  A
C2587      C2594   1.449       .  S
C2588      C3469   1.423       .  A
C2589      C3468   1.420   1_565  A
C2589      C2590   1.416       .  A
C2589      C2592   1.451       .  S
C2590      C2593   1.452       .  S
C2591      N2598   1.157       .  T
C2592      N2597   1.157       .  T
C2593      N2595   1.157       .  T
C2594      N2596   1.157       .  T
C2599      C3480   1.416   1_545  A
C2599      C2604   1.425       .  A
C2600      C3479   1.415       .  A
C2600      C2601   1.423       .  A
C2600      C2605   1.453       .  S
C2601      C3482   1.431       .  A
C2601      C2608   1.449       .  S
C2602      C3481   1.428       .  A
C2602      C2603   1.415   1_565  A
C2603      C2604   1.418       .  A
C2603      C2606   1.451       .  S
C2604      C2607   1.451       .  S
C2605      N2612   1.158       .  T
C2606      N2611   1.157       .  T
C2607      N2609   1.157       .  T
C2608      N2610   1.157       .  T
C2613      C2614   1.425       .  A
C2613      C2618   1.423       .  A
C2614      C2615   1.422       .  A
C2614      C2619   1.446       .  S
C2615      C2616   1.413       .  A
C2615      C2622   1.451       .  S
C2616      C2617   1.414       .  A
C2617      C2618   1.415       .  A
C2617      C2620   1.452       .  S
C2618      C2621   1.451       .  S
C2619      N2626   1.158       .  T
C2620      N2625   1.157       .  T
C2621      N2623   1.157       .  T
C2622      N2624   1.157       .  T
C2627      C2628   1.412       .  A
C2627      C2632   1.410       .  A
C2628      C2629   1.413       .  A
C2628      C2633   1.452       .  S
C2629      C2630   1.424       .  A
C2629      C2636   1.452       .  S
C2630      C2631   1.429       .  A
C2631      C2632   1.417       .  A
C2631      C2634   1.448       .  S
C2632      C2635   1.452       .  S
C2633      N2640   1.157       .  T
C2634      N2639   1.158       .  T
C2635      N2637   1.157       .  T
C2636      N2638   1.157       .  T
C2641      C2642   1.521       .  S
C2641      C2647   1.549       .  S
C2641      C2645   1.546       .  S
C2641      C3510   1.561       .  S
C2642      H2649   1.087       .  S
C2643      C2644   1.564       .  S
C2643      C3465   1.503       .  S
C2644      C2648   1.545       .  S
C2644      C2646   1.562       .  S
C2644      H2650   1.104       .  S
C2645      H2651   1.080       .  S
C2646      C3482   1.529       .  S
C2648      C3493   1.521       .  S
N2653      H2685   1.042       .  S
N2653      C2657   1.347       .  A
N2654      C2661   1.346   1_554  A
N2654      C2662   1.348       .  A
N2655      H2686   1.039       .  S
N2655      C2659   1.354       .  A
N2656      C2663   1.349   1_554  A
N2656      C2664   1.348       .  A
C2657      C2665   1.387       .  A
C2657      C2673   1.405       .  A
C2658      C2674   1.411       .  A
C2658      C2666   1.387       .  A
C2659      C2667   1.385       .  A
C2659      C2676   1.410       .  A
C2660      C2675   1.412       .  A
C2660      C2668   1.390       .  A
C2661      C2673   1.408       .  A
C2661      C2669   1.386       .  A
C2662      C2676   1.408       .  A
C2662      C2670   1.385       .  A
C2663      C2671   1.387       .  A
C2663      C2674   1.413       .  A
C2664      C2672   1.386       .  A
C2664      C2675   1.409       .  A
C2665      H2677   1.082       .  S
C2666      H2678   1.082       .  S
C2667      H2679   1.082       .  S
C2668      H2680   1.082       .  S
C2669      C2670   1.378   1_556  A
C2669      H2681   1.082       .  S
C2670      H2682   1.082       .  S
C2671      C2672   1.380   1_556  A
C2671      H2683   1.082       .  S
C2672      H2684   1.083       .  S
C2673      C3451   1.485       .  S
C2674      C3437   1.499       .  S
C2675      C3409   1.484       .  S
C2676      C3423   1.493       .  S
C2687      C2688   1.551       .  S
C2687      C2693   1.538       .  S
C2687      C2691   1.528       .  S
C2687      C3395   1.563       .  S
C2688      H2695   1.079       .  S
C2689      C2690   1.550       .  S
C2689      C3367   1.515       .  S
C2690      C2694   1.555       .  S
C2690      C2692   1.570       .  S
C2690      H2696   1.102       .  S
C2691      H2697   1.087       .  S
C2692      C3353   1.511       .  S
C2694      C3384   1.528       .  S
C2699      C2705   1.542       .  S
C2699      C2703   1.545       .  S
C2700      H2707   1.086       .  S
C2700      C2701   1.369       .  D
C2701      C3342   1.521       .  S
C2702      C2706   1.548       .  S
C2702      C2704   1.552       .  S
C2702      H2708   1.108       .  S
C2703      H2709   1.083       .  S
C2703      C2704   1.368       .  D
C2704      C3325   1.510       .  S
C2705      H2710   1.085       .  S
C2705      C2706   1.369       .  D
N2711      H2743   1.041       .  S
N2711      C2716   1.349       .  A
N2712      C2719   1.353       .  A
N2712      C2720   1.349   1_554  A
N2713      H2744   1.040       .  S
N2713      C2718   1.354       .  A
N2714      C2721   1.348       .  A
N2714      C2722   1.350   1_554  A
C2715      C2723   1.385       .  A
C2715      C2731   1.410       .  A
C2716      C2732   1.412       .  A
C2716      C2724   1.389       .  A
C2717      C2725   1.388       .  A
C2717      C2734   1.410       .  A
C2718      C2733   1.414       .  A
C2718      C2726   1.387       .  A
C2719      C2731   1.417       .  A
C2719      C2727   1.387       .  A
C2720      C2734   1.411       .  A
C2720      C2728   1.386       .  A
C2721      C2729   1.388       .  A
C2721      C2732   1.414       .  A
C2722      C2730   1.385       .  A
C2722      C2733   1.411       .  A
C2723      H2735   1.082       .  S
C2724      H2736   1.082       .  S
C2725      H2737   1.082       .  S
C2726      H2738   1.082       .  S
C2727      C2728   1.379   1_554  A
C2727      H2739   1.082       .  S
C2728      H2740   1.082       .  S
C2729      C2730   1.378   1_554  A
C2729      H2741   1.082       .  S
C2730      H2742   1.082       .  S
C2731      C3258   1.508       .  S
C2732      C3241   1.489       .  S
C2733      C3272   1.498       .  S
C2734      C3283   1.483       .  S
O2745     Zr2757   2.477       .  S
O2745      C2747   1.295       .  A
O2746     Zr2783   2.385       .  S
O2746      C2747   1.278       .  A
C2747      C3454   1.490       .  S
O2748     Zr2760   2.446       .  S
O2748      C2750   1.288       .  A
O2749     Zr2784   2.447       .  S
O2749      C2750   1.290       .  A
C2750      C3398   1.490       .  S
O2751     Zr2760   2.440       .  S
O2751      C2753   1.286       .  A
O2752     Zr2783   2.399       .  S
O2752      C2753   1.281       .  A
C2753      C3286   1.465       .  S
O2754     Zr2757   2.423       .  S
O2754      C2756   1.284       .  A
O2755     Zr2784   2.490       .  S
O2755      C2756   1.300       .  A
C2756      C3339   1.521       .  S
Zr2757     O2758   2.435       .  S
Zr2757     O2759   2.435       .  S
Zr2757     O2763   2.366       .  S
Zr2757     O2764   2.382       .  S
Zr2757     O2787   2.387       .  S
Zr2757     O2789   2.348       .  S
O2758      H2801   0.990       .  S
O2759      H2800   0.990       .  S
O2759      H2804   0.989       .  S
Zr2760     O2761   2.438       .  S
Zr2760     O2762   2.434       .  S
Zr2760     O2764   2.367       .  S
Zr2760     O2763   2.376       .  S
Zr2760     O2788   2.377       .  S
Zr2760     O2790   2.371       .  S
O2761      H2802   0.990       .  S
O2761      H2805   0.990       .  S
O2762      H2795   0.990       .  S
O2763     Zr2783   2.380       .  S
O2764     Zr2784   2.398       .  S
O2764      H2791   0.965       .  S
O2765     Zr2777   2.457       .  S
O2765      C2767   1.292       .  A
O2766     Zr2784   2.440       .  S
O2766      C2767   1.290       .  A
C2767      C3381   1.501       .  S
O2768     Zr2780   2.476       .  S
O2768      C2770   1.295       .  A
O2769     Zr2783   2.391       .  S
O2769      C2770   1.279       .  A
C2770      C3440   1.498       .  S
O2771     Zr2780   2.422       .  S
O2771      C2773   1.284       .  A
O2772     Zr2784   2.487       .  S
O2772      C2773   1.299       .  A
C2773      C3328   1.506       .  S
O2774     Zr2777   2.483       .  S
O2774      C2776   1.296       .  A
O2775     Zr2783   2.409       .  S
O2775      C2776   1.283       .  A
C2776      C3269   1.491       .  S
Zr2777     O2778   2.430       .  S
Zr2777     O2779   2.434       .  S
Zr2777     O2785   2.383       .  S
Zr2777     O2786   2.371       .  S
Zr2777     O2789   2.368       .  S
Zr2777     O2787   2.383       .  S
O2778      H2798   0.990       .  S
O2778      H2803   0.990       .  S
O2779      H2799   0.990       .  S
Zr2780     O2781   2.433       .  S
Zr2780     O2782   2.436       .  S
Zr2780     O2786   2.364       .  S
Zr2780     O2785   2.379       .  S
Zr2780     O2790   2.387       .  S
Zr2780     O2788   2.356       .  S
O2781      H2797   0.990       .  S
O2782      H2796   0.990       .  S
O2782      H2806   0.990       .  S
Zr2783     O2786   2.369       .  S
Zr2783     O2788   2.373       .  S
Zr2783     O2789   2.369       .  S
Zr2784     O2785   2.401       .  S
Zr2784     O2787   2.398       .  S
Zr2784     O2790   2.393       .  S
O2785      H2793   0.964       .  S
O2788      H2792   0.969       .  S
O2789      H2794   0.964       .  S
O2807     Zr2819   2.428       .  S
O2807      C2809   1.286       .  A
O2808     Zr2845   2.475       .  S
O2808      C2809   1.297       .  A
C2809      C3227   1.515       .  S
O2810     Zr2822   2.483       .  S
O2810      C2812   1.296       .  A
O2811     Zr2846   2.403       .  S
O2811      C2812   1.282       .  A
C2812      C3255   1.501       .  S
O2813     Zr2822   2.450       .  S
O2813      C2815   1.291       .  A
O2814     Zr2845   2.447       .  S
O2814      C2815   1.291       .  A
C2815      C3507   1.502       .  S
O2816     Zr2819   2.459       .  S
O2816      C2818   1.291       .  A
O2817     Zr2846   2.410       .  S
O2817      C2818   1.283       .  A
C2818      C3426   1.486       .  S
Zr2819     O2820   2.435       .  S
Zr2819     O2821   2.428       .  S
Zr2819     O2825   2.377       .  S
Zr2819     O2826   2.368       .  S
Zr2819     O2849   2.351       .  S
Zr2819     O2851   2.382       .  S
O2820      H2863   0.990       .  S
O2821      H2862   0.989       .  S
O2821      H2866   0.989       .  S
Zr2822     O2823   2.427       .  S
Zr2822     O2824   2.435       .  S
Zr2822     O2826   2.372       .  S
Zr2822     O2825   2.378       .  S
Zr2822     O2850   2.374       .  S
Zr2822     O2852   2.368       .  S
O2823      H2864   0.989       .  S
O2823      H2867   0.989       .  S
O2824      H2857   0.990       .  S
O2825     Zr2845   2.391       .  S
O2826     Zr2846   2.373       .  S
O2826      H2853   0.963       .  S
O2827     Zr2839   2.462       .  S
O2827      C2829   1.293       .  A
O2828     Zr2846   2.385       .  S
O2828      C2829   1.279       .  A
C2829      C3244   1.486       .  S
O2830     Zr2842   2.420       .  S
O2830      C2832   1.285       .  A
O2831     Zr2845   2.474       .  S
O2831      C2832   1.296       .  A
C2832      C3213   1.504       .  S
O2833     Zr2842   2.435       .  S
O2833      C2835   1.284       .  A
O2834     Zr2846   2.414       .  S
O2834      C2835   1.284       .  A
C2835      C3412   1.468       .  S
O2836     Zr2839   2.437       .  S
O2836      C2838   1.288       .  A
O2837     Zr2845   2.451       .  S
O2837      C2838   1.292       .  A
C2838      C3496   1.500       .  S
Zr2839     O2840   2.437       .  S
Zr2839     O2841   2.434       .  S
Zr2839     O2847   2.361       .  S
Zr2839     O2848   2.375       .  S
Zr2839     O2851   2.380       .  S
Zr2839     O2849   2.366       .  S
O2840      H2860   0.989       .  S
O2840      H2865   0.990       .  S
O2841      H2861   0.991       .  S
Zr2842     O2843   2.438       .  S
Zr2842     O2844   2.431       .  S
Zr2842     O2848   2.375       .  S
Zr2842     O2847   2.363       .  S
Zr2842     O2852   2.371       .  S
Zr2842     O2850   2.380       .  S
O2843      H2859   0.990       .  S
O2844      H2858   0.990       .  S
O2844      H2868   0.990       .  S
Zr2845     O2848   2.395       .  S
Zr2845     O2850   2.399       .  S
Zr2845     O2851   2.399       .  S
Zr2846     O2847   2.378       .  S
Zr2846     O2849   2.370       .  S
Zr2846     O2852   2.370       .  S
O2847      H2855   0.966       .  S
O2850      H2854   0.965       .  S
O2851      H2856   0.963       .  S
O2869     Zr2881   2.419       .  S
O2869      C2871   1.282       .  A
O2870      C2871   1.301       .  A
C2871      C3370   1.533       .  S
O2872     Zr2884   2.487   1_455  S
O2872      C2874   1.296       .  A
O2873     Zr2908   2.389       .  S
O2873      C2874   1.279   1_655  A
C2874      C3185   1.497       .  S
O2875     Zr2884   2.447   1_455  S
O2875      C2877   1.291       .  A
O2876     Zr2907   2.443   1_455  S
O2876      C2877   1.290       .  A
C2877      C3297   1.501       .  S
O2878     Zr2881   2.471       .  S
O2878      C2880   1.293       .  A
O2879      C2880   1.283       .  A
C2880      C3157   1.494       .  S
Zr2881     O2882   2.434       .  S
Zr2881     O2887   2.375       .  S
Zr2881     O2888   2.363       .  S
O2882      H2925   0.990       .  S
O2883      H2924   0.990       .  S
O2883      H2928   0.990       .  S
Zr2884     O2886   2.435       .  S
Zr2884     O2912   2.382       .  S
Zr2884     O2914   2.368       .  S
O2885      H2926   0.989       .  S
O2885      H2929   0.990       .  S
O2886      H2919   0.990       .  S
O2888      H2915   0.967       .  S
O2889     Zr2901   2.460       .  S
O2889      C2891   1.292       .  A
O2890      C2891   1.279       .  A
C2891      C3199   1.486       .  S
O2892     Zr2904   2.417       .  S
O2893     Zr2907   2.497       .  S
C2894      C3356   1.501       .  S
O2895     Zr2904   2.451       .  S
O2896     Zr2908   2.421       .  S
C2897      C3171   1.467       .  S
O2898     Zr2901   2.440       .  S
O2898      C2900   1.289       .  A
O2899      C2900   1.293       .  A
C2900      C3314   1.513       .  S
Zr2901     O2902   2.437       .  S
Zr2901     O2909   2.364       .  S
Zr2901     O2910   2.372       .  S
O2902      H2922   0.989       .  S
O2902      H2927   0.990       .  S
O2903      H2923   0.990       .  S
Zr2904     O2906   2.435       .  S
Zr2904     O2914   2.369       .  S
Zr2904     O2912   2.381       .  S
O2905      H2921   0.990       .  S
O2906      H2920   0.990       .  S
O2906      H2930   0.990       .  S
Zr2907     O2912   2.401       .  S
Zr2908     O2914   2.372       .  S
O2909      H2917   0.968       .  S
O2912      H2916   0.962       .  S
O2913      H2918   0.966       .  S
O2931     Zr2943   2.438       .  S
O2931      C2933   1.288       .  A
O2932      C2933   1.295       .  A
C2933      C3087   1.498       .  S
O2934     Zr2946   2.461       .  S
O2937     Zr2946   2.426       .  S
C2939      C3479   1.518       .  S
O2940     Zr2943   2.478       .  S
O2940      C2942   1.296       .  A
O2941      C2942   1.278       .  A
Zr2943     O2945   2.430       .  S
Zr2943     O2973   2.361       .  S
Zr2943     O2975   2.387       .  S
O2944      H2987   0.990       .  S
O2945      H2986   0.989       .  S
O2945      H2990   0.990       .  S
Zr2946     O2948   2.432   1_545  S
Zr2946     O2974   2.379   1_545  S
Zr2946     O2976   2.359   1_545  S
O2947      H2988   0.989       .  S
O2947      H2991   0.990       .  S
O2948      H2981   0.990       .  S
O2950      H2977   0.966       .  S
O2951     Zr2963   2.440       .  S
C2953      C3143   1.473       .  S
O2954     Zr2966   2.443       .  S
O2954      C2956   1.289       .  A
O2955     Zr2969   2.449   1_565  S
O2955      C2956   1.292       .  A
C2956      C3073   1.497       .  S
O2957     Zr2966   2.478       .  S
O2957      C2959   1.294       .  A
O2958     Zr2970   2.384   1_565  S
O2958      C2959   1.278       .  A
C2959      C3115   1.490   1_655  S
O2960     Zr2963   2.418       .  S
C2962      C3468   1.507       .  S
Zr2963     O2965   2.435       .  S
Zr2963     O2975   2.368       .  S
Zr2963     O2973   2.365       .  S
O2964      H2984   0.990       .  S
O2964      H2989   0.990       .  S
O2965      H2985   0.990       .  S
Zr2966     O2967   2.434       .  S
Zr2966     O2972   2.375       .  S
Zr2966     O2971   2.368       .  S
O2967      H2983   0.990       .  S
O2968      H2982   0.989       .  S
O2968      H2992   0.990       .  S
Zr2969     O2972   2.390   1_545  S
Zr2970     O2971   2.374   1_545  S
O2971      H2979   0.964       .  S
O2974      H2978   0.965       .  S
O2975      H2980   0.965       .  S
N2993      H3025   1.041       .  S
N2993      C2998   1.348       .  A
N2993      C2997   1.349       .  A
N2994      C3001   1.348       .  A
N2994      C3002   1.349       .  A
N2995      H3026   1.043       .  S
N2995      C3000   1.350       .  A
N2995      C2999   1.350       .  A
N2996      C3003   1.346       .  A
N2996      C3004   1.347       .  A
C2997      C3005   1.387       .  A
C2997      C3013   1.407       .  A
C2998      C3014   1.408       .  A
C2998      C3006   1.388       .  A
C2999      C3007   1.387       .  A
C2999      C3016   1.410       .  A
C3000      C3015   1.407       .  A
C3000      C3008   1.385       .  A
C3001      C3013   1.411       .  A
C3001      C3009   1.386       .  A
C3002      C3016   1.414       .  A
C3002      C3010   1.387       .  A
C3003      C3011   1.387       .  A
C3003      C3014   1.409       .  A
C3004      C3012   1.386       .  A
C3004      C3015   1.409       .  A
C3005      C3006   1.374       .  A
C3005      H3017   1.082       .  S
C3006      H3018   1.082       .  S
C3007      C3008   1.374       .  A
C3007      H3019   1.082       .  S
C3008      H3020   1.082       .  S
C3009      C3010   1.382       .  A
C3009      H3021   1.082       .  S
C3010      H3022   1.082       .  S
C3011      C3012   1.379       .  A
C3011      H3023   1.082       .  S
C3012      H3024   1.082       .  S
C3013      C3188   1.491       .  S
C3015      C3118   1.492       .  S
C3016      C3104   1.501       .  S
N3027      H3059   1.039   1_545  S
N3027      C3032   1.352       .  A
N3027      C3031   1.350       .  A
N3028      C3035   1.350       .  A
N3028      C3036   1.350       .  A
N3029      H3060   1.039   1_545  S
N3029      C3034   1.353       .  A
N3029      C3033   1.353       .  A
N3030      C3037   1.351       .  A
N3030      C3038   1.350       .  A
C3031      C3039   1.387       .  A
C3031      C3047   1.408       .  A
C3032      C3048   1.410   1_545  A
C3032      C3040   1.387       .  A
C3033      C3041   1.386       .  A
C3033      C3050   1.412       .  A
C3034      C3049   1.415   1_545  A
C3034      C3042   1.388       .  A
C3035      C3047   1.410       .  A
C3035      C3043   1.386       .  A
C3036      C3050   1.411       .  A
C3036      C3044   1.386       .  A
C3037      C3045   1.385       .  A
C3037      C3048   1.413       .  A
C3038      C3046   1.387       .  A
C3038      C3049   1.414       .  A
C3039      C3040   1.366       .  A
C3039      H3051   1.082       .  S
C3040      H3052   1.082       .  S
C3041      C3042   1.372       .  A
C3041      H3053   1.082       .  S
C3042      H3054   1.082       .  S
C3043      C3044   1.379       .  A
C3043      H3055   1.083       .  S
C3044      H3056   1.083       .  S
C3045      C3046   1.378       .  A
C3045      H3057   1.082       .  S
C3046      H3058   1.082       .  S
C3047      C3174   1.485       .  S
C3048      C3160   1.496       .  S
C3049      C3132   1.495       .  S
C3050      C3146   1.491       .  S
C3061      C3067   1.548       .  S
C3061      C3065   1.545       .  S
C3061      C3076   1.559       .  S
C3062      H3069   1.087       .  S
C3062      C3063   1.356       .  D
C3063      C3216   1.492       .  S
C3064      C3068   1.546       .  S
C3064      C3066   1.560       .  S
C3064      H3070   1.104       .  S
C3065      H3071   1.078       .  S
C3065      C3066   1.369       .  D
C3066      C3230   1.525       .  S
C3067      H3072   1.085       .  S
C3067      C3068   1.375       .  D
C3068      C3090   1.518       .  S
C3073      C3074   1.411       .  A
C3074      C3075   1.418       .  A
C3074      C3079   1.452       .  S
C3075      C3076   1.430       .  A
C3075      C3082   1.449       .  S
C3077      C3078   1.413       .  A
C3077      C3080   1.454       .  S
C3078      C3081   1.451       .  S
C3079      N3086   1.157       .  T
C3080      N3085   1.157       .  T
C3081      N3083   1.157       .  T
C3082      N3084   1.158       .  T
C3087      C3092   1.413       .  A
C3088      C3089   1.422       .  A
C3088      C3093   1.451       .  S
C3089      C3096   1.447       .  S
C3090      C3091   1.421       .  A
C3091      C3092   1.412       .  A
C3091      C3094   1.451       .  S
C3092      C3095   1.452       .  S
C3093      N3100   1.157       .  T
C3094      N3099   1.157       .  T
C3095      N3097   1.157       .  T
C3096      N3098   1.158       .  T
C3101      C3106   1.416       .  A
C3102      C3103   1.408       .  A
C3102      C3107   1.450       .  S
C3103      C3110   1.452       .  S
C3104      C3105   1.416       .  A
C3105      C3106   1.412       .  A
C3105      C3108   1.451       .  S
C3106      C3109   1.451       .  S
C3107      N3114   1.157       .  T
C3108      N3113   1.156       .  T
C3109      N3111   1.157       .  T
C3110      N3112   1.157       .  T
C3115      C3120   1.420   1_455  A
C3116      C3117   1.412       .  A
C3116      C3121   1.449       .  S
C3117      C3118   1.411       .  A
C3117      C3124   1.451       .  S
C3119      C3120   1.405       .  A
C3119      C3122   1.451       .  S
C3120      C3123   1.448       .  S
C3121      N3128   1.157       .  T
C3122      N3127   1.157       .  T
C3123      N3125   1.156       .  T
C3124      N3126   1.157       .  T
C3129      C3134   1.412   1_545  A
C3130      C3131   1.406       .  A
C3130      C3135   1.449       .  S
C3131      C3138   1.452       .  S
C3132      C3133   1.414       .  A
C3133      C3134   1.412       .  A
C3133      C3136   1.449       .  S
C3134      C3137   1.451       .  S
C3135      N3142   1.156       .  T
C3136      N3141   1.157       .  T
C3137      N3139   1.157       .  T
C3138      N3140   1.157       .  T
C3143      C3144   1.409       .  A
C3143      C3148   1.409   1_545  A
C3144      C3145   1.411       .  A
C3145      C3146   1.413       .  A
C3145      C3152   1.449       .  S
C3146      C3147   1.412   1_545  A
C3147      C3148   1.407       .  A
C3147      C3150   1.450       .  S
C3148      C3151   1.452       .  S
C3149      N3156   1.158       .  T
C3150      N3155   1.157       .  T
C3151      N3153   1.157       .  T
C3152      N3154   1.157       .  T
C3157      C3158   1.417       .  A
C3158      C3159   1.408       .  A
C3158      C3163   1.448       .  S
C3159      C3166   1.452       .  S
C3160      C3161   1.413       .  A
C3161      C3162   1.414       .  A
C3161      C3164   1.452       .  S
C3162      C3165   1.450       .  S
C3163      N3170   1.156       .  T
C3164      N3169   1.157       .  T
C3165      N3167   1.157       .  T
C3166      N3168   1.157       .  T
C3171      C3176   1.408   1_545  A
C3172      C3173   1.411       .  A
C3172      C3177   1.450       .  S
C3173      C3180   1.450       .  S
C3174      C3175   1.413   1_545  A
C3175      C3176   1.407       .  A
C3175      C3178   1.451       .  S
C3176      C3179   1.452       .  S
C3177      N3184   1.157       .  T
C3178      N3183   1.157       .  T
C3179      N3181   1.157       .  T
C3180      N3182   1.157       .  T
C3185      C3186   1.423   1_455  A
C3186      C3187   1.407       .  A
C3186      C3191   1.449       .  S
C3187      C3194   1.452       .  S
C3188      C3189   1.411       .  A
C3189      C3190   1.411       .  A
C3189      C3192   1.451       .  S
C3190      C3193   1.449       .  S
C3191      N3198   1.157       .  T
C3192      N3197   1.157       .  T
C3193      N3195   1.157       .  T
C3194      N3196   1.157       .  T
C3199      C3204   1.419       .  A
C3200      C3201   1.408       .  A
C3200      C3205   1.451       .  S
C3201      C3208   1.451       .  S
C3202      C3203   1.410   1_455  A
C3203      C3204   1.407       .  A
C3203      C3206   1.451       .  S
C3204      C3207   1.450       .  S
C3205      N3212   1.157       .  T
C3206      N3211   1.157       .  T
C3207      N3209   1.157       .  T
C3208      N3210   1.157       .  T
C3213      C3214   1.417       .  A
C3213      C3218   1.423       .  A
C3214      C3215   1.419       .  A
C3214      C3219   1.449       .  S
C3215      C3216   1.415       .  A
C3215      C3222   1.450       .  S
C3216      C3217   1.407       .  A
C3217      C3218   1.408       .  A
C3217      C3220   1.454       .  S
C3218      C3221   1.450       .  S
C3219      N3226   1.157       .  T
C3221      N3223   1.156       .  T
C3222      N3224   1.157       .  T
C3227      C3228   1.414       .  A
C3227      C3232   1.420       .  A
C3228      C3229   1.423       .  A
C3228      C3233   1.452       .  S
C3229      C3230   1.431       .  A
C3229      C3236   1.449       .  S
C3230      C3231   1.414       .  A
C3231      C3232   1.414       .  A
C3231      C3234   1.450       .  S
C3232      C3235   1.449       .  S
C3233      N3240   1.158       .  T
C3234      N3239   1.157       .  T
C3235      N3237   1.156       .  T
C3236      N3238   1.157       .  T
C3241      C3242   1.407       .  A
C3241      C3246   1.412       .  A
C3242      C3243   1.405       .  A
C3242      C3247   1.452       .  S
C3243      C3244   1.420       .  A
C3243      C3250   1.450       .  S
C3244      C3245   1.414       .  A
C3245      C3246   1.409       .  A
C3245      C3248   1.451       .  S
C3246      C3249   1.449       .  S
C3247      N3254   1.157       .  T
C3248      N3253   1.157       .  T
C3249      N3251   1.157       .  T
C3250      N3252   1.156       .  T
C3255      C3256   1.421       .  A
C3255      C3260   1.416       .  A
C3256      C3257   1.410       .  A
C3256      C3261   1.447       .  S
C3257      C3258   1.410       .  A
C3257      C3264   1.451       .  S
C3258      C3259   1.417       .  A
C3259      C3260   1.415       .  A
C3259      C3262   1.450       .  S
C3260      C3263   1.450       .  S
C3261      N3268   1.157       .  T
C3262      N3267   1.157       .  T
C3263      N3265   1.157       .  T
C3264      N3266   1.157       .  T
C3269      C3270   1.413       .  A
C3269      C3274   1.413       .  A
C3270      C3271   1.410       .  A
C3270      C3275   1.445       .  S
C3271      C3272   1.410       .  A
C3271      C3278   1.452       .  S
C3272      C3273   1.413       .  A
C3273      C3274   1.415       .  A
C3273      C3276   1.449       .  S
C3274      C3277   1.449       .  S
C3275      N3282   1.155       .  T
C3276      N3281   1.157       .  T
C3277      N3279   1.157       .  T
C3278      N3280   1.157       .  T
C3283      C3284   1.412       .  A
C3283      C3288   1.411       .  A
C3284      C3285   1.405       .  A
C3284      C3289   1.450       .  S
C3285      C3286   1.408       .  A
C3285      C3292   1.452       .  S
C3286      C3287   1.409       .  A
C3287      C3288   1.407       .  A
C3287      C3290   1.452       .  S
C3288      C3291   1.450       .  S
C3289      N3296   1.157       .  T
C3290      N3295   1.158       .  T
C3291      N3293   1.157       .  T
C3292      N3294   1.157       .  T
C3297      C3298   1.413   1_455  A
C3298      C3299   1.419       .  A
C3298      C3303   1.448       .  S
C3299      C3300   1.419   1_655  A
C3299      C3306   1.449       .  S
C3301      C3302   1.412       .  A
C3301      C3304   1.453       .  S
C3302      C3305   1.452       .  S
C3303      N3310   1.157       .  T
C3304      N3309   1.158       .  T
C3305      N3307   1.157       .  T
C3306      N3308   1.157       .  T
C3311      C3316   1.427       .  A
C3312      C3313   1.419       .  A
C3312      C3317   1.449       .  S
C3313      C3320   1.450       .  S
C3314      C3315   1.418       .  A
C3315      C3316   1.415       .  A
C3315      C3318   1.453       .  S
C3316      C3319   1.452       .  S
C3317      N3324   1.157       .  T
C3318      N3323   1.157       .  T
C3319      N3321   1.157       .  T
C3320      N3322   1.157       .  T
C3325      C3326   1.418       .  A
C3325      C3330   1.412       .  A
C3326      C3327   1.423       .  A
C3326      C3331   1.445       .  S
C3327      C3328   1.414       .  A
C3327      C3334   1.451       .  S
C3328      C3329   1.420       .  A
C3329      C3330   1.414       .  A
C3329      C3332   1.451       .  S
C3330      C3333   1.452       .  S
C3331      N3338   1.156       .  T
C3332      N3337   1.157       .  T
C3333      N3335   1.157       .  T
C3334      N3336   1.157       .  T
C3339      C3340   1.429       .  A
C3339      C3344   1.416       .  A
C3340      C3341   1.419       .  A
C3340      C3345   1.451       .  S
C3341      C3342   1.412       .  A
C3341      C3348   1.451       .  S
C3342      C3343   1.424       .  A
C3343      C3344   1.420       .  A
C3343      C3346   1.449       .  S
C3344      C3347   1.451       .  S
C3345      N3352   1.157       .  T
C3346      N3351   1.156       .  T
C3347      N3349   1.158       .  T
C3348      N3350   1.157   1_655  T
C3353      C3354   1.415       .  A
C3354      C3355   1.418       .  A
C3354      C3359   1.447       .  S
C3355      C3362   1.446       .  S
C3356      C3357   1.419   1_545  A
C3357      C3358   1.415       .  A
C3357      C3360   1.451       .  S
C3358      C3361   1.452       .  S
C3359      N3366   1.158       .  T
C3360      N3365   1.157       .  T
C3361      N3363   1.157       .  T
C3362      N3364   1.157       .  T
C3367      C3372   1.405       .  A
C3368      C3369   1.420       .  A
C3368      C3373   1.445       .  S
C3369      C3376   1.451       .  S
C3370      C3371   1.437       .  A
C3371      C3372   1.420       .  A
C3371      C3374   1.452       .  S
C3372      C3375   1.450       .  S
C3373      N3380   1.155       .  T
C3374      N3379   1.157       .  T
C3375      N3377   1.156       .  T
C3376      N3378   1.158       .  T
C3381      C3382   1.410       .  A
C3381      C3386   1.413       .  A
C3382      C3383   1.412       .  A
C3382      C3387   1.452       .  S
C3383      C3384   1.427       .  A
C3383      C3390   1.451       .  S
C3384      C3385   1.426       .  A
C3385      C3386   1.421       .  A
C3385      C3388   1.446       .  S
C3386      C3389   1.452       .  S
C3387      N3394   1.157       .  T
C3388      N3393   1.158       .  T
C3389      N3391   1.157       .  T
C3395      C3396   1.429       .  A
C3395      C3400   1.430       .  A
C3396      C3397   1.415       .  A
C3396      C3401   1.448       .  S
C3397      C3398   1.406       .  A
C3397      C3404   1.449       .  S
C3398      C3399   1.408       .  A
C3399      C3400   1.415       .  A
C3399      C3402   1.452       .  S
C3400      C3403   1.453       .  S
C3401      N3408   1.158       .  T
C3402      N3407   1.157       .  T
C3403      N3405   1.158       .  T
C3404      N3406   1.155       .  T
C3409      C3410   1.411       .  A
C3409      C3414   1.412       .  A
C3410      C3411   1.408       .  A
C3410      C3415   1.450       .  S
C3411      C3412   1.410       .  A
C3411      C3418   1.451       .  S
C3412      C3413   1.406       .  A
C3413      C3414   1.405       .  A
C3413      C3416   1.451       .  S
C3414      C3417   1.451       .  S
C3415      N3422   1.157       .  T
C3416      N3421   1.157       .  T
C3417      N3419   1.157       .  T
C3418      N3420   1.157       .  T
C3423      C3424   1.410       .  A
C3423      C3428   1.411       .  A
C3424      C3425   1.409       .  A
C3424      C3429   1.452       .  S
C3425      C3426   1.413       .  A
C3425      C3432   1.447       .  S
C3426      C3427   1.414       .  A
C3427      C3428   1.412       .  A
C3427      C3430   1.449       .  S
C3428      C3431   1.451       .  S
C3429      N3436   1.157       .  T
C3430      N3435   1.157       .  T
C3431      N3433   1.157       .  T
C3432      N3434   1.156       .  T
C3437      C3438   1.414       .  A
C3437      C3442   1.409       .  A
C3438      C3439   1.412       .  A
C3438      C3443   1.451       .  S
C3439      C3440   1.417       .  A
C3439      C3446   1.451       .  S
C3440      C3441   1.423       .  A
C3441      C3442   1.410       .  A
C3441      C3444   1.450       .  S
C3442      C3445   1.452       .  S
C3443      N3450   1.157       .  T
C3444      N3449   1.157       .  T
C3445      N3447   1.157       .  T
C3446      N3448   1.157       .  T
C3451      C3452   1.409       .  A
C3451      C3456   1.404       .  A
C3452      C3453   1.408       .  A
C3452      C3457   1.451       .  S
C3453      C3454   1.416       .  A
C3453      C3460   1.449       .  S
C3454      C3455   1.424       .  A
C3455      C3456   1.406       .  A
C3455      C3458   1.448       .  S
C3456      C3459   1.453       .  S
C3457      N3464   1.157       .  T
C3458      N3463   1.156       .  T
C3459      N3461   1.157       .  T
C3460      N3462   1.157       .  T
C3465      C3470   1.411       .  A
C3466      C3467   1.421       .  A
C3466      C3471   1.448       .  S
C3467      C3468   1.413       .  A
C3467      C3474   1.449       .  S
C3469      C3470   1.415       .  A
C3469      C3472   1.451       .  S
C3470      C3473   1.454       .  S
C3471      N3478   1.157       .  T
C3472      N3477   1.157       .  T
C3473      N3475   1.157       .  T
C3474      N3476   1.157       .  T
C3479      C3484   1.423       .  A
C3480      C3481   1.422       .  A
C3480      C3485   1.452       .  S
C3481      C3488   1.450       .  S
C3482      C3483   1.416       .  A
C3483      C3484   1.417       .  A
C3483      C3486   1.450       .  S
C3484      C3487   1.452       .  S
C3485      N3492   1.158       .  T
C3486      N3491   1.157       .  T
C3487      N3489   1.157       .  T
C3488      N3490   1.157       .  T
C3493      C3494   1.425       .  A
C3493      C3498   1.419       .  A
C3494      C3495   1.422       .  A
C3494      C3499   1.447       .  S
C3495      C3496   1.413       .  A
C3495      C3502   1.452       .  S
C3496      C3497   1.413       .  A
C3497      C3498   1.411       .  A
C3497      C3500   1.452       .  S
C3498      C3501   1.450       .  S
C3499      N3506   1.158       .  T
C3500      N3505   1.157       .  T
C3501      N3503   1.156       .  T
C3502      N3504   1.158       .  T
C3507      C3508   1.414       .  A
C3507      C3512   1.413       .  A
C3508      C3509   1.415       .  A
C3508      C3513   1.451       .  S
C3509      C3510   1.424       .  A
C3509      C3516   1.452       .  S
C3510      C3511   1.427       .  A
C3511      C3512   1.418       .  A
C3511      C3514   1.450       .  S
C3512      C3515   1.451       .  S
C3513      N3520   1.157       .  T
C3514      N3519   1.158       .  T
C3515      N3517   1.158       .  T
C3516      N3518   1.157       .  T
