geometry optimzed in LAMMPS
_audit_creation_date              2020-12-01 
_audit_creation_method            'lammps2cif' 
_symmetry_space_group_name_H-M    'P1' 
_symmetry_Int_Tables_number       1 
_symmetry_cell_setting            triclinic 
loop_ 
_symmetry_equiv_pos_as_xyz 
  x,y,z 
_cell_length_a                    26.83450387 
_cell_length_b                    26.986489966760082 
_cell_length_c                    78.10076101620412 
_cell_angle_alpha                 89.98472044637893 
_cell_angle_beta                  89.97134871279121 
_cell_angle_gamma                 89.52285597281013 
loop_ 
_atom_site_label 
_atom_site_type_symbol 
_atom_site_fract_x 
_atom_site_fract_y 
_atom_site_fract_z 
_atom_site_charge 
C1          C  0.49410556  0.05702067  0.24121474     0.87000
C2          C  0.44852156  0.05086665  0.25294107    -0.53300
C3          C  0.44852903  0.00817920  0.26217483     0.09900
C4          C  0.49427470  0.97443785  0.25892508     0.20800
C5          C  0.53915304  0.05056675  0.25311876    -0.54000
C6          C  0.53970584  0.00751038  0.26228362     0.10000
C7          C  0.49344810  0.00959466  0.23026007    -0.53500
C8          C  0.49460670  0.96585761  0.23933144     0.10600
H9          H  0.41708632  0.07602718  0.25377746     0.15100
H10         H  0.49540533  0.94058279  0.26684647     0.00800
H11         H  0.56892222  0.07751479  0.25393278     0.15400
H12         H  0.49213063  0.01101630  0.21638171     0.15200
C13         C  0.95646347  0.51188175  0.00928860     0.02800
C14         C  0.95687914  0.51600588  0.99126728     0.02700
C15         C  0.00241376  0.51852869  0.98255845    -0.17800
C16         C  0.04765929  0.51726285  0.99148209     0.02800
C17         C  0.04746828  0.51374804  0.00953081     0.02700
C18         C  0.00178297  0.51065298  0.01818026    -0.17800
H19         H  0.00147684  0.50775112  0.03202730     0.04800
H20         H  0.00265653  0.52112751  0.96870059     0.04800
C21         C  0.48586558  0.05703496  0.76402192     0.87000
C22         C  0.53239556  0.05651336  0.75251102    -0.53300
C23         C  0.53788700  0.01503405  0.74264861     0.09900
C24         C  0.49530529  0.97770539  0.74488845     0.20800
C25         C  0.44189636  0.04838528  0.75190587    -0.54000
C26         C  0.44673680  0.00738989  0.74183088     0.10000
C27         C  0.48987549  0.00806352  0.77416930    -0.53500
C28         C  0.49582992  0.96684993  0.76420880     0.10600
H29         H  0.55887032  0.08670925  0.75229074     0.15100
H30         H  0.49912660  0.94404068  0.73680649     0.00800
H31         H  0.40941801  0.07265490  0.75135063     0.15400
H32         H  0.48806911  0.00455186  0.78791771     0.15200
C33         C  0.00957435  0.43280675  0.74129782     0.87000
C34         C  0.05455640  0.44089664  0.75319057    -0.53300
C35         C  0.05228002  0.48394476  0.76231772     0.09900
C36         C  0.00510031  0.51519758  0.75906923     0.20800
C37         C  0.96431384  0.43667047  0.75325249    -0.54000
C38         C  0.96169980  0.47947332  0.76250396     0.10000
C39         C  0.00823454  0.48024920  0.73040237    -0.53500
C40         C  0.00546613  0.52346038  0.73952205     0.10600
H41         H  0.08691387  0.41699711  0.75414568     0.15100
H42         H  0.00289964  0.54967100  0.76678289     0.00800
H43         H  0.93670131  0.40763947  0.75439834     0.15400
H44         H  0.01023690  0.47956925  0.71651257     0.15200
C45         C  0.50557934  0.96419783  0.00917403     0.02800
C46         C  0.50372382  0.96632179  0.99112749     0.02700
C47         C  0.50369049  0.01251212  0.98281197    -0.17800
C48         C  0.50467727  0.05693636  0.99212838     0.02800
C49         C  0.50647261  0.05485684  0.01023743     0.02700
C50         C  0.50723771  0.00852892  0.01848123    -0.19800
H51         H  0.50914991  0.00692624  0.03233883     0.04800
H52         H  0.50277374  0.01387447  0.96893674     0.04800
C53         C  0.65162528  0.51538865  0.91698543     0.42900
N54         N  0.60467700  0.49273821  0.89635994     0.01800
C55         C  0.45704469  0.64119132  0.84483463    -0.06100
H56         H  0.41551642  0.65169853  0.90979648     0.07300
C57         C  0.37186942  0.46980823  0.90840583    -0.06400
Co58       Co  0.56406775  0.57941099  0.87698568     0.74200
N59         N  0.47261838  0.61509865  0.89494957    -0.25600
Co60       Co  0.43538631  0.57494809  0.87639336     0.74100
C61         C  0.35092024  0.51482985  0.91600155     0.43000
N62         N  0.48102339  0.40960887  0.89575776     0.01400
N63         N  0.39835101  0.53482496  0.89513471     0.01500
N64         N  0.54122794  0.64405283  0.84551385    -0.46400
H65         H  0.63777313  0.59802106  0.91132237     0.07300
N66         N  0.52165381  0.61698703  0.89516075     0.01800
N67         N  0.39934882  0.53370370  0.85783839     0.01600
C68         C  0.35107951  0.51128040  0.83744464     0.43200
N69         N  0.53010570  0.41140795  0.89605911    -0.25000
C70         C  0.63929248  0.55737622  0.84762828    -0.06000
N71         N  0.63438578  0.47549130  0.90851370    -0.46100
N72         N  0.36935312  0.55103724  0.84576675    -0.46400
C73         C  0.66322390  0.51303705  0.84055242     0.42900
N74         N  0.52348139  0.61533362  0.85780636     0.01800
N75         N  0.53193458  0.41193794  0.85867110    -0.25100
N76         N  0.60238860  0.54161970  0.89611553    -0.25600
N77         N  0.48285963  0.41065977  0.85837042     0.01500
H78         H  0.58878438  0.37785298  0.84340036     0.07300
H79         H  0.36373447  0.42852189  0.84393798     0.07400
N80         N  0.47439127  0.61345601  0.85774363    -0.25600
N81         N  0.40048170  0.48596093  0.89549953    -0.25200
N82         N  0.60838316  0.49150730  0.85911948     0.01800
C83         C  0.49864032  0.66481564  0.91562133     0.43200
C84         C  0.54672028  0.38175286  0.90866162    -0.06500
N85         N  0.40110043  0.48494073  0.85823371    -0.25200
H86         H  0.36478929  0.43145227  0.91152301     0.07400
N87         N  0.53878216  0.64689877  0.90716293    -0.46400
H88         H  0.58542393  0.37403674  0.91154485     0.07400
C89         C  0.50535704  0.36532850  0.83699703     0.43100
C90         C  0.63055161  0.55932026  0.90882575    -0.06000
Co91       Co  0.56955085  0.45110805  0.87756519     0.73800
N92         N  0.46261426  0.37910880  0.90740257    -0.46200
C93         C  0.50146395  0.66143110  0.83665640     0.43300
N94         N  0.64216122  0.47364811  0.84831529    -0.46100
Co95       Co  0.44065266  0.44693247  0.87698307     0.73900
C96         C  0.37165177  0.46729281  0.84589836    -0.06500
C97         C  0.45455324  0.64422667  0.90741150    -0.06000
N98         N  0.60631977  0.54037643  0.85905016    -0.25600
N99         N  0.36872160  0.55355134  0.90705385    -0.46300
H100        H  0.41808420  0.64724543  0.84193009     0.07300
C101        C  0.54967693  0.38430484  0.84575740    -0.06400
Cl102      Cl  0.50247038  0.51307958  0.87696570    -0.49400
C103        C  0.50180627  0.36024621  0.91613816     0.43100
H104        H  0.64760103  0.59598054  0.84543681     0.07300
N105        N  0.46556608  0.38315471  0.84574052    -0.46200
C106        C  0.49591111  0.65976946  0.16481143     0.42900
N107        N  0.51956639  0.61415598  0.14370796     0.01800
C108        C  0.37477223  0.46084440  0.09329233    -0.06100
H109        H  0.36421282  0.41841307  0.15565741     0.07300
C110        C  0.55282143  0.38270436  0.15698485    -0.06400
Co111      Co  0.43380186  0.56955451  0.12494843     0.74200
N112        N  0.40181104  0.47727762  0.14278700    -0.25600
Co113      Co  0.44479217  0.44132735  0.12438562     0.74100
C114        C  0.50847157  0.36026159  0.16450335     0.43000
N115        N  0.60857141  0.49404051  0.14396743     0.01400
N116        N  0.48658998  0.40613688  0.14335427     0.01500
N117        N  0.36805248  0.54441098  0.09418269    -0.46400
H118        H  0.41307853  0.64289125  0.15954240     0.07300
N119        N  0.39784318  0.52597019  0.14337131     0.01800
N120        N  0.48897939  0.40596855  0.10598361     0.01600
C121        C  0.51543960  0.35658328  0.08635061     0.43200
N122        N  0.60482966  0.54277637  0.14356579    -0.25000
C123        C  0.45191489  0.64061692  0.09399197    -0.06000
N124        N  0.53617681  0.64363768  0.15596406    -0.46100
N125        N  0.47390019  0.37450282  0.09406518    -0.46400
C126        C  0.49539231  0.66161069  0.08546988     0.42900
N127        N  0.39934219  0.52755111  0.10596642     0.01800
N128        N  0.60392691  0.54157878  0.10639466    -0.25100
N129        N  0.47055999  0.61026857  0.14377307    -0.25600
N130        N  0.60823433  0.49282301  0.10656343     0.01500
H131        H  0.63639184  0.59816078  0.09052516     0.07300
H132        H  0.59737733  0.37281466  0.09289381     0.07400
N133        N  0.40375557  0.47878924  0.10575502    -0.25600
N134        N  0.53552725  0.41041994  0.14398658    -0.25200
N135        N  0.51966177  0.61438100  0.10607335     0.01800
C136        C  0.34622350  0.49999494  0.16254017     0.43200
C137        C  0.63514750  0.56166342  0.15549217    -0.06500
N138        N  0.53793952  0.40904741  0.10675996    -0.25200
H139        H  0.59165463  0.37698266  0.16014357     0.07400
N140        N  0.36454967  0.54104282  0.15483223    -0.46400
H141        H  0.64138320  0.60076245  0.15749543     0.07400
C142        C  0.65359489  0.51564833  0.08548496     0.43100
C143        C  0.45220393  0.63787888  0.15662269    -0.06000
Co144      Co  0.56257180  0.57905812  0.12491618     0.73800
N145        N  0.64088064  0.47817989  0.15560811    -0.46200
C146        C  0.35140334  0.50451295  0.08553797     0.43300
N147        N  0.53605304  0.64422883  0.09382433    -0.46100
Co148      Co  0.57335568  0.45098464  0.12540049     0.73900
C149        C  0.55796053  0.37918773  0.09486413    -0.06500
C150        C  0.37085416  0.45760027  0.15433604    -0.06000
N151        N  0.47060106  0.61157803  0.10641999    -0.25600
N152        N  0.46901561  0.37591639  0.15520831    -0.46300
H153        H  0.36907418  0.42201595  0.09057944     0.07300
C154        C  0.63145851  0.55939296  0.09354240    -0.06400
Cl155      Cl  0.50361057  0.51024919  0.12493227    -0.49400
C156        C  0.65911068  0.51866871  0.16359108     0.43100
H157        H  0.41278525  0.64702395  0.09148136     0.07300
N158        N  0.63798972  0.47575796  0.09434824    -0.46200
C159        C  0.15183683  0.98446626  0.66211561     0.42900
N160        N  0.10007765  0.96030045  0.64280627     0.01800
C161        C  0.94416812  0.10733346  0.59315398    -0.06100
H162        H  0.91077291  0.11824243  0.65906457     0.07300
C163        C  0.86007028  0.93600510  0.65700133    -0.06400
Co164      Co  0.05470127  0.04558559  0.62379794     0.74200
N165        N  0.96553677  0.08164425  0.64321660    -0.25600
Co166      Co  0.92548002  0.04073707  0.62521707     0.74100
C167        C  0.83620380  0.98070290  0.66398398     0.43000
N168        N  0.97564535  0.87783980  0.64546845     0.01400
N169        N  0.88920549  0.00122445  0.64453032     0.01500
N170        N  0.02830956  0.10945303  0.59282082    -0.46400
H171        H  0.13515703  0.06673090  0.65591418     0.07300
N172        N  0.01466264  0.08360031  0.64263043     0.01800
N173        N  0.88775564  0.99765990  0.60722745     0.01600
C174        C  0.83933049  0.97234936  0.58724399     0.43200
N175        N  0.02469573  0.87983161  0.64458629    -0.25000
C176        C  0.12096879  0.02152860  0.59195258    -0.06000
N177        N  0.13255315  0.94408128  0.65435314    -0.46100
N178        N  0.85712794  0.01335851  0.59501682    -0.46400
C179        C  0.14147501  0.97639024  0.58426950     0.42900
N180        N  0.01155544  0.08075567  0.60527632     0.01800
N181        N  0.02067093  0.87635031  0.60729464    -0.25100
N182        N  0.09736615  0.00906908  0.64224456    -0.25600
N183        N  0.97167702  0.87414138  0.60807996     0.01500
H184        H  0.07501310  0.84064861  0.59101102     0.07300
H185        H  0.85692005  0.89053048  0.59343175     0.07400
N186        N  0.96249519  0.07910891  0.60584436    -0.25600
N187        N  0.89184191  0.95242747  0.64505619    -0.25200
N188        N  0.09503207  0.95686702  0.60550055     0.01800
C189        C  0.99463652  0.13175034  0.66344894     0.43200
C190        C  0.04416369  0.85179618  0.65705308    -0.06500
N191        N  0.89066973  0.94887467  0.60799876    -0.25200
H192        H  0.85215605  0.89745123  0.65943754     0.07400
N193        N  0.03346048  0.11363769  0.65432041    -0.46400
H194        H  0.08350218  0.84518094  0.65904178     0.07400
C195        C  0.99101557  0.82687877  0.58697508     0.43100
C196        C  0.12843717  0.02770508  0.65397229    -0.06000
Co197      Co  0.06085526  0.91761915  0.62506399     0.73800
N198        N  0.96004701  0.84863102  0.65798791    -0.46200
C199        C  0.98802047  0.12728456  0.58442990     0.43300
N200        N  0.12395936  0.93789236  0.59341898    -0.46100
Co201      Co  0.93197157  0.91255735  0.62675924     0.73900
C202        C  0.86197287  0.92963334  0.59574747    -0.06500
C203        C  0.94938071  0.11090219  0.65598512    -0.06000
N204        N  0.09294457  0.00568534  0.60503665    -0.25600
N205        N  0.85615116  0.01947547  0.65549128    -0.46300
H206        H  0.90505784  0.11416877  0.59073568     0.07300
C207        C  0.03647722  0.84753690  0.59435550    -0.06400
Cl208      Cl  0.99322413  0.97915491  0.62527726    -0.49400
C209        C  0.00128539  0.83118302  0.66602286     0.43100
H210        H  0.12841509  0.05980577  0.58892248     0.07300
N211        N  0.95251241  0.84449652  0.59634319    -0.46200
C212        C  0.99639050  0.12854929  0.33564374     0.42900
N213        N  0.97496275  0.08345932  0.35709830     0.01800
C214        C  0.12623785  0.93537584  0.40771701    -0.06100
H215        H  0.12747553  0.88723179  0.34348655     0.07300
C216        C  0.93931318  0.85075698  0.34880943    -0.06400
Co217      Co  0.06312587  0.04030624  0.37520261     0.74200
N218        N  0.09327289  0.94669156  0.35770480    -0.25600
Co219      Co  0.05375970  0.91256546  0.37743117     0.74100
C220        C  0.98180872  0.82762469  0.34010769     0.43000
N221        N  0.88713455  0.96337958  0.36065476     0.01400
N222        N  0.00851533  0.87568033  0.35994395     0.01500
N223        N  0.13120601  0.01875705  0.40556565    -0.46400
H224        H  0.07974077  0.11114506  0.34015914     0.07300
N225        N  0.09687159  0.99532751  0.35682541     0.01800
N226        N  0.01387363  0.87946684  0.39726755     0.01600
C227        C  0.99379518  0.83188826  0.41824956     0.43200
N228        N  0.89100078  0.01200093  0.35973424    -0.25000
C229        C  0.04884856  0.11378413  0.40548459    -0.06000
N230        N  0.95707732  0.11300142  0.34499047    -0.46100
N231        N  0.03245290  0.84870654  0.40888245    -0.46400
C232        C  0.00659034  0.13826334  0.41382173     0.42900
N233        N  0.10052669  0.00028961  0.39401603     0.01800
N234        N  0.89536048  0.01757553  0.39678033    -0.25100
N235        N  0.02391167  0.07913488  0.35647331    -0.25600
N236        N  0.89228965  0.96890049  0.39800774     0.01500
H237        H  0.85998089  0.07758341  0.41052652     0.07300
H238        H  0.91013355  0.84916672  0.41444956     0.07400
N239        N  0.09709324  0.95161659  0.39491441    -0.25600
N240        N  0.95954317  0.87949857  0.36090478    -0.25200
N241        N  0.97954808  0.08874633  0.39448310     0.01800
C242        C  0.14564179  0.96866342  0.33695090     0.43200
C243        C  0.86123406  0.02868442  0.34720210    -0.06500
N244        N  0.96491614  0.88362065  0.39817816    -0.25200
H245        H  0.89982469  0.84666877  0.34656471     0.07400
N246        N  0.12796061  0.00998499  0.34469914    -0.46400
H247        H  0.85512053  0.06732787  0.34418296     0.07400
C248        C  0.84500781  0.99655761  0.41805686     0.43100
C249        C  0.04088127  0.10597307  0.34329799    -0.06000
Co250      Co  0.93456656  0.05125640  0.37702207     0.73800
N251        N  0.85554585  0.94537582  0.34924701    -0.46200
C252        C  0.14884930  0.98014030  0.41476068     0.43300
N253        N  0.96481311  0.12081304  0.40635002    -0.46100
Co254      Co  0.92513980  0.92323898  0.37952618     0.73900
C255        C  0.94876615  0.85527133  0.41117065    -0.06500
C256        C  0.12216906  0.92653275  0.34550518    -0.06000
N257        N  0.02847662  0.08430907  0.39365900    -0.25600
N258        N  0.02339225  0.84501652  0.34770392    -0.46300
H259        H  0.13201552  0.89697975  0.41122833     0.07300
C260        C  0.86663592  0.03828997  0.40888894    -0.06400
Cl261      Cl  0.99413106  0.98181484  0.37730754    -0.49400
C262        C  0.83811884  0.98427558  0.34004686     0.43100
H263        H  0.08835236  0.11824464  0.40761477     0.07300
N264        N  0.86206379  0.95475107  0.41046410    -0.46200
C265        C  0.99082131  0.52479423  0.51119786     0.02800
C266        C  0.99387503  0.52621199  0.49313905     0.02700
C267        C  0.99828849  0.48158514  0.48402544    -0.17800
C268        C  0.99991415  0.43562261  0.49243826     0.02800
C269        C  0.99756102  0.43415222  0.51055986     0.02700
C270        C  0.99287182  0.47891305  0.51966267    -0.17800
H271        H  0.98995379  0.47806802  0.53350773     0.04800
H272        H  0.00073867  0.48262144  0.47016860     0.04800
C273        C  0.53886041  0.98202324  0.50989742     0.02800
C274        C  0.53760315  0.98432311  0.49179215     0.02700
C275        C  0.49143707  0.98353495  0.48334192    -0.17800
C276        C  0.44663150  0.98053534  0.49249755     0.02800
C277        C  0.44793094  0.97916195  0.51055500     0.02700
C278        C  0.49396290  0.97960464  0.51903659    -0.17800
H279        H  0.49485296  0.97761033  0.53290302     0.04800
H280        H  0.49030423  0.98591082  0.46949009     0.04800
C281        C  0.00364658  0.43862258  0.26220175     0.87000
C282        C  0.95446990  0.44811432  0.25259735    -0.53300
C283        C  0.95337610  0.49088899  0.24320245     0.09900
C284        C  0.00180205  0.52102492  0.24432391     0.20800
C285        C  0.04432981  0.44177977  0.24843086    -0.54000
C286        C  0.04354224  0.48455329  0.23909359     0.10000
C287        C  0.00992443  0.48633829  0.27292929    -0.53500
C288        C  0.00929260  0.52921850  0.26363684     0.10600
H289        H  0.92327842  0.42277239  0.25302362     0.15100
H290        H  0.00113094  0.55580417  0.23671043     0.00800
H291        H  0.07208979  0.41284447  0.24642404     0.15400
H292        H  0.01081834  0.48786665  0.28674906     0.15200
C293        C  0.96604218  0.65662409  0.27795289    -0.01500
C294        C  0.99894785  0.66629121  0.29159179     0.07100
C295        C  0.03843840  0.63322261  0.29479995    -0.07500
C296        C  0.04433932  0.59002650  0.28506627     0.04500
C297        C  0.00946592  0.57856950  0.27212873    -0.14700
C298        C  0.97131060  0.61284973  0.26838617    -0.08100
C299        C  0.99243657  0.71011235  0.30292354     0.05400
C300        C  0.95088285  0.71267192  0.31380056    -0.09200
C301        C  0.94534555  0.75139073  0.32564075     0.00400
C302        C  0.98233174  0.78840086  0.32679259     0.00300
C303        C  0.02317907  0.78631199  0.31554088    -0.12700
C304        C  0.02829786  0.74784661  0.30362869     0.00800
C305        C  0.90281122  0.75019870  0.33695322     0.40100
C306        C  0.07039071  0.74793239  0.29211939     0.36700
C307        C  0.92719056  0.69158687  0.27347866     0.36400
C308        C  0.08719687  0.55867913  0.28830150     0.37200
N309        N  0.86848132  0.74880423  0.34591765    -0.43600
N310        N  0.10393021  0.74781865  0.28280243    -0.44100
N311        N  0.12174290  0.53375224  0.29078617    -0.41400
N312        N  0.89649230  0.72016112  0.26994176    -0.42900
H313        H  0.94466614  0.60471983  0.25836501     0.13300
H314        H  0.06449172  0.64103819  0.30504219     0.09800
H315        H  0.92332010  0.68349593  0.31333518     0.10900
H316        H  0.05148615  0.81473731  0.31612434     0.16700
C317        C  0.04035499  0.21741213  0.30129496    -0.01500
C318        C  0.99976498  0.25051499  0.29993308     0.07100
C319        C  0.95635902  0.24150555  0.30935464    -0.07500
C320        C  0.95347897  0.20111170  0.32058344     0.04500
C321        C  0.99496076  0.16870962  0.32254937    -0.14700
C322        C  0.03761458  0.17684657  0.31245452    -0.08100
C323        C  0.00352882  0.29757404  0.29022625     0.05400
C324        C  0.99294081  0.29858684  0.27270779    -0.09200
C325        C  0.99402408  0.34324869  0.26348698     0.00400
C326        C  0.00495215  0.38872745  0.27189960     0.00300
C327        C  0.01813090  0.38626580  0.28941702    -0.12700
C328        C  0.01703085  0.34161942  0.29851572     0.00800
C329        C  0.98343726  0.34081705  0.24539213     0.40100
C330        C  0.03022194  0.34167446  0.31645162     0.36700
C331        C  0.08593271  0.22558769  0.29192101     0.36400
C332        C  0.90835283  0.19576597  0.33046482     0.37200
N333        N  0.97462786  0.33814003  0.23092505    -0.43600
N334        N  0.04077325  0.34140884  0.33081570    -0.44100
N335        N  0.87215307  0.19169957  0.33838800    -0.41400
N336        N  0.12254187  0.23216440  0.28445190    -0.42900
H337        H  0.06951794  0.15218927  0.31352101     0.13300
H338        H  0.92522101  0.26724363  0.30837074     0.09800
H339        H  0.98344896  0.26436422  0.26624475     0.10900
H340        H  0.03036509  0.41843736  0.29633142     0.16700
C341        C  0.96882239  0.22219438  0.45050651    -0.01500
C342        C  0.00381353  0.26077752  0.44925413     0.07100
C343        C  0.04112315  0.25792533  0.43671806    -0.07500
C344        C  0.04334905  0.21811426  0.42523105     0.04500
C345        C  0.00743297  0.18006756  0.42614404    -0.14700
C346        C  0.97042819  0.18271065  0.43884149    -0.08100
C347        C  0.00186092  0.30494398  0.46063904     0.05400
C348        C  0.04221161  0.31444305  0.47156360    -0.09200
C349        C  0.04252416  0.35654563  0.48208249     0.00400
C350        C  0.00180321  0.39002082  0.48175010     0.00300
C351        C  0.96171366  0.38069231  0.47070588    -0.12700
C352        C  0.96144969  0.33874928  0.46018174     0.00800
C353        C  0.08558119  0.36519878  0.49269371     0.40100
C354        C  0.91997526  0.33201030  0.44866723     0.36700
C355        C  0.93166253  0.22194731  0.46387474     0.36400
C356        C  0.08140392  0.21887514  0.41216315     0.37200
N357        N  0.12024496  0.37177222  0.50117627    -0.43600
N358        N  0.88664015  0.32652145  0.43948611    -0.44100
N359        N  0.11201869  0.21960057  0.40172256    -0.41400
N360        N  0.90195190  0.22200876  0.47461564    -0.42900
H361        H  0.94299951  0.15350719  0.43977637     0.13300
H362        H  0.06807845  0.28754195  0.43569332     0.09800
H363        H  0.07367545  0.28894682  0.47179403     0.10900
H364        H  0.93046836  0.40645199  0.47030766     0.16700
C365        C  0.95770352  0.74478070  0.45438141    -0.01500
C366        C  0.99650743  0.70920372  0.45400619     0.07100
C367        C  0.03579536  0.71537731  0.44239055    -0.07500
C368        C  0.03646372  0.75547313  0.43097296     0.04500
C369        C  0.99671114  0.79046469  0.43089405    -0.14700
C370        C  0.95791596  0.78468054  0.44283280    -0.08100
C371        C  0.99534576  0.66364049  0.46479143     0.05400
C372        C  0.95710983  0.62926886  0.46215393    -0.09200
C373        C  0.95595691  0.58460324  0.47128444     0.00400
C374        C  0.99341572  0.57374124  0.48344235     0.00300
C375        C  0.03155492  0.60818906  0.48615286    -0.12700
C376        C  0.03279992  0.65282076  0.47696027     0.00800
C377        C  0.91546574  0.55083052  0.46819699     0.40100
C378        C  0.07250666  0.68717386  0.48037919     0.36700
C379        C  0.91777433  0.74143593  0.46671782     0.36400
C380        C  0.07743745  0.75803185  0.41902782     0.37200
N381        N  0.88302073  0.52366590  0.46586830    -0.43600
N382        N  0.10438279  0.71465582  0.48314270    -0.44100
N383        N  0.11039193  0.75977541  0.40948613    -0.41400
N384        N  0.88600261  0.73869154  0.47669031    -0.42900
H385        H  0.92758670  0.81142190  0.44318394     0.13300
H386        H  0.06555306  0.68792769  0.44195280     0.09800
H387        H  0.92840626  0.63712028  0.45274440     0.10900
H388        H  0.06068557  0.59995131  0.49536382     0.16700
C389        C  0.23028355  0.94403188  0.45233590    -0.01500
C390        C  0.26437147  0.98343614  0.45297802     0.07100
C391        C  0.25841970  0.02353546  0.44173945    -0.07500
C392        C  0.22013962  0.02422453  0.42958618     0.04500
C393        C  0.18749295  0.98339489  0.42827529    -0.14700
C394        C  0.19262119  0.94403806  0.43994590    -0.08100
C395        C  0.30891330  0.98176981  0.46421214     0.05400
C396        C  0.34319759  0.94280813  0.46210220    -0.09200
C397        C  0.38712154  0.94095935  0.47165615     0.00400
C398        C  0.39886819  0.98010151  0.48287433     0.00300
C399        C  0.36406740  0.01871966  0.48526331    -0.12700
C400        C  0.31877567  0.01912946  0.47633313     0.00800
C401        C  0.41730875  0.89664361  0.47063567     0.40100
C402        C  0.28209987  0.05687277  0.48025902     0.36700
C403        C  0.23280892  0.90366840  0.46445671     0.36400
C404        C  0.21667200  0.06669318  0.41837438     0.37200
N405        N  0.43975787  0.85993957  0.46993935    -0.43600
N406        N  0.25220059  0.08659328  0.48346790    -0.44100
N407        N  0.21392403  0.10095592  0.40949500    -0.41400
N408        N  0.23485600  0.87155594  0.47426005    -0.42900
H409        H  0.16707902  0.91318225  0.43946893     0.13300
H410        H  0.28465121  0.05387989  0.44217921     0.09800
H411        H  0.33535301  0.91343677  0.45304696     0.10900
H412        H  0.37205300  0.04816699  0.49425949     0.16700
C413        C  0.72209500  0.03476218  0.43784520    -0.01500
C414        C  0.71719149  0.00002020  0.45119266     0.07100
C415        C  0.75484227  0.96442138  0.45378341    -0.07500
C416        C  0.79711837  0.96305732  0.44327831     0.04500
C417        C  0.80241805  0.99823464  0.43004818    -0.14700
C418        C  0.76491919  0.03420542  0.42760522    -0.08100
C419        C  0.67139367  0.99748572  0.46173061     0.05400
C420        C  0.64043464  0.95653937  0.45962085    -0.09200
C421        C  0.59657257  0.95207443  0.46906526     0.00400
C422        C  0.58371262  0.98836051  0.48136636     0.00300
C423        C  0.61470099  0.02966086  0.48344553    -0.12700
C424        C  0.65809951  0.03471084  0.47360430     0.00800
C425        C  0.56628906  0.90914407  0.46602234     0.40100
C426        C  0.68822596  0.07832402  0.47577356     0.36700
C427        C  0.68235112  0.06922184  0.43379502     0.36400
C428        C  0.83478108  0.92567938  0.44648030     0.37200
N429        N  0.54310383  0.87411202  0.46330305    -0.43600
N430        N  0.71220745  0.11349366  0.47729041    -0.44100
N431        N  0.86499303  0.89575332  0.44905144    -0.41400
N432        N  0.65020774  0.09648711  0.43054790    -0.42900
H433        H  0.76799918  0.06063190  0.41720950     0.13300
H434        H  0.75080466  0.93724558  0.46391704     0.09800
H435        H  0.65041892  0.92812602  0.45037342     0.10900
H436        H  0.60461454  0.05823278  0.49260936     0.16700
C437        C  0.32251210  0.93753704  0.52694697    -0.01500
C438        C  0.31022697  0.97578661  0.53852643     0.07100
C439        C  0.34355787  0.01487454  0.54103011    -0.07500
C440        C  0.38873890  0.01631478  0.53215131     0.04500
C441        C  0.40147221  0.97761381  0.52078508    -0.14700
C442        C  0.36824306  0.93831223  0.51838589    -0.08100
C443        C  0.26434746  0.97417209  0.54900185     0.05400
C444        C  0.25966138  0.93622384  0.56111109    -0.09200
C445        C  0.21936959  0.93539159  0.57243755     0.00400
C446        C  0.18251386  0.97311102  0.57165142     0.00300
C447        C  0.18656071  0.01023810  0.55913656    -0.12700
C448        C  0.22720143  0.01121738  0.54789982     0.00800
C449        C  0.21895084  0.89720281  0.58538590     0.40100
C450        C  0.23022346  0.05062441  0.53543262     0.36700
C451        C  0.28804063  0.89818766  0.52322294     0.36400
C452        C  0.42072375  0.05856838  0.53446148     0.37200
N453        N  0.21890933  0.86669718  0.59580315    -0.43600
N454        N  0.23286628  0.08226903  0.52547916    -0.44100
N455        N  0.44657201  0.09230313  0.53620916    -0.41400
N456        N  0.26021963  0.86689429  0.52014366    -0.42900
H457        H  0.37770660  0.90869750  0.50954998     0.13300
H458        H  0.33422673  0.04426043  0.54997959     0.09800
H459        H  0.28862281  0.90809113  0.56210500     0.10900
H460        H  0.15818152  0.03871226  0.55822120     0.16700
C461        C  0.63861436  0.02005461  0.54140231    -0.01500
C462        C  0.67329575  0.98065458  0.54003384     0.07100
C463        C  0.66355493  0.94151960  0.52874485    -0.07500
C464        C  0.62022833  0.94134066  0.51876933     0.04500
C465        C  0.58625079  0.98145964  0.51972854    -0.14700
C466        C  0.59576500  0.02039482  0.53116735    -0.08100
C467        C  0.71780966  0.97756225  0.55127748     0.05400
C468        C  0.72036408  0.93941632  0.56340770    -0.09200
C469        C  0.75973113  0.93656453  0.57509718     0.00400
C470        C  0.79797272  0.97240771  0.57467839     0.00300
C471        C  0.79582761  0.01011594  0.56228718    -0.12700
C472        C  0.75642407  0.01264253  0.55051815     0.00800
C473        C  0.75777717  0.89824858  0.58798106     0.40100
C474        C  0.75647537  0.05109381  0.53765817     0.36700
C475        C  0.64511578  0.05916698  0.55380359     0.36400
C476        C  0.60999489  0.89807789  0.50856158     0.37200
N477        N  0.75592482  0.86749053  0.59828899    -0.43600
N478        N  0.75616252  0.08181023  0.52731487    -0.44100
N479        N  0.60201167  0.86291444  0.50058365    -0.41400
N480        N  0.65064434  0.09028243  0.56380186    -0.42900
H481        H  0.56912252  0.05066901  0.53231224     0.13300
H482        H  0.68937915  0.91043816  0.52804109     0.09800
H483        H  0.69055980  0.91254997  0.56406746     0.10900
H484        H  0.82511867  0.03754032  0.56175305     0.16700
C485        C  0.94864069  0.24123185  0.55946295    -0.01500
C486        C  0.99156978  0.25156524  0.54969903     0.07100
C487        C  0.03294291  0.21975004  0.55089562    -0.07500
C488        C  0.03229092  0.17835952  0.56172939     0.04500
C489        C  0.98944317  0.16816191  0.57168417    -0.14700
C490        C  0.94773722  0.19966127  0.57015799    -0.08100
C491        C  0.99474553  0.29661871  0.53881571     0.05400
C492        C  0.03047564  0.33254567  0.54272721    -0.09200
C493        C  0.03254829  0.37705586  0.53353056     0.00400
C494        C  0.99783779  0.38653871  0.52027226     0.00300
C495        C  0.96266704  0.35006402  0.51622843    -0.12700
C496        C  0.96182747  0.30491697  0.52502761     0.00800
C497        C  0.07140195  0.41178499  0.53767657     0.40100
C498        C  0.92761543  0.26718198  0.51947750     0.36700
C499        C  0.90579600  0.27395437  0.55932218     0.36400
C500        C  0.07618697  0.14724591  0.56218733     0.37200
N501        N  0.10264783  0.43952044  0.54095286    -0.43600
N502        N  0.90038170  0.23668628  0.51509909    -0.44100
N503        N  0.11192895  0.12303218  0.56233674    -0.41400
N504        N  0.87142950  0.30013161  0.55912315    -0.42900
H505        H  0.91477264  0.19308706  0.57781363     0.13300
H506        H  0.06601636  0.22751773  0.54339415     0.09800
H507        H  0.05648539  0.32597978  0.55312404     0.10900
H508        H  0.93573855  0.35680081  0.50614713     0.16700
C509        C  0.94586238  0.71037580  0.56527662    -0.01500
C510        C  0.98159885  0.70363743  0.55220208     0.07100
C511        C  0.01761357  0.74025733  0.54955444    -0.07500
C512        C  0.02048008  0.78158458  0.56033123     0.04500
C513        C  0.98670311  0.78680026  0.57410332    -0.14700
C514        C  0.94860792  0.75178835  0.57603835    -0.08100
C515        C  0.98382467  0.65767744  0.54171846     0.05400
C516        C  0.94347889  0.64527791  0.53117440    -0.09200
C517        C  0.94457182  0.60198738  0.52126397     0.00400
C518        C  0.98701329  0.57067409  0.52163283     0.00300
C519        C  0.02712516  0.58290529  0.53227541    -0.12700
C520        C  0.02591012  0.62593993  0.54224887     0.00800
C521        C  0.90102534  0.58982675  0.51134587     0.40100
C522        C  0.06795206  0.63633101  0.55317143     0.36700
C523        C  0.90740339  0.67434024  0.56838711     0.36400
C524        C  0.05765485  0.81844810  0.55665774     0.37200
N525        N  0.86562001  0.58058885  0.50356410    -0.43600
N526        N  0.10162047  0.64492751  0.56190135    -0.44100
N527        N  0.08744773  0.84790963  0.55357417    -0.41400
N528        N  0.87642449  0.64561321  0.57084880    -0.42900
H529        H  0.92195861  0.75570936  0.58641040     0.13300
H530        H  0.04420984  0.73599272  0.53917555     0.09800
H531        H  0.91097193  0.66940780  0.53075516     0.10900
H532        H  0.05964951  0.55878249  0.53270771     0.16700
C533        C  0.16057120  0.53507749  0.21885447    -0.01500
C534        C  0.16660014  0.50369339  0.20449870     0.07100
C535        C  0.12909809  0.46945763  0.20068611    -0.07500
C536        C  0.08708309  0.46492888  0.21122960     0.04500
C537        C  0.08211144  0.49480534  0.22595342    -0.14700
C538        C  0.11829330  0.53070798  0.22935399    -0.08100
C539        C  0.21292098  0.50359278  0.19391768     0.05400
C540        C  0.24316012  0.46093990  0.19374987    -0.09200
C541        C  0.28693451  0.45861009  0.18392274     0.00400
C542        C  0.30152038  0.50005950  0.17396032     0.00300
C543        C  0.27118114  0.54284919  0.17432686    -0.12700
C544        C  0.22700366  0.54462159  0.18390640     0.00800
C545        C  0.31577859  0.41326873  0.18467334     0.40100
C546        C  0.19544117  0.58797814  0.18252026     0.36700
C547        C  0.19881081  0.56963442  0.22371946     0.36400
C548        C  0.04946189  0.42940195  0.20667655     0.37200
N549        N  0.33807317  0.37640927  0.18540624    -0.43600
N550        N  0.17008860  0.62267533  0.18125617    -0.44100
N551        N  0.01920808  0.40119427  0.20285687    -0.41400
N552        N  0.22958193  0.59723689  0.22759929    -0.42900
H553        H  0.11488662  0.55343510  0.24074288     0.13300
H554        H  0.13314878  0.44558359  0.18959900     0.09800
H555        H  0.23243231  0.42917142  0.20140427     0.10900
H556        H  0.28106870  0.57477355  0.16663737     0.16700
C557        C  0.87613961  0.52223157  0.20412726    -0.01500
C558        C  0.82716117  0.51981311  0.21063357     0.07100
C559        C  0.81995125  0.51245777  0.22823241    -0.07500
C560        C  0.86070690  0.50565613  0.23923406     0.04500
C561        C  0.90969796  0.50533544  0.23257002    -0.14700
C562        C  0.91694186  0.51521329  0.21511318    -0.08100
C563        C  0.78309937  0.52081780  0.19911343     0.05400
C564        C  0.75995287  0.47595599  0.19515800    -0.09200
C565        C  0.71981036  0.47420248  0.18370181     0.00400
C566        C  0.70108988  0.51843889  0.17618615     0.00300
C567        C  0.72409426  0.56356929  0.18049413    -0.12700
C568        C  0.76492052  0.56494588  0.19171819     0.00800
C569        C  0.69994275  0.42605868  0.17970123     0.40100
C570        C  0.78779682  0.61198374  0.19540190     0.36700
C571        C  0.88528310  0.52941546  0.18609009     0.36400
C572        C  0.85138602  0.49967185  0.25732923     0.37200
N573        N  0.68494639  0.38709379  0.17646194    -0.43600
N574        N  0.80629017  0.64962768  0.19832856    -0.44100
N575        N  0.84411785  0.49502734  0.27184656    -0.41400
N576        N  0.89254880  0.53515421  0.17162263    -0.42900
H577        H  0.95440165  0.51514237  0.20990874     0.13300
H578        H  0.78238665  0.51120220  0.23331346     0.09800
H579        H  0.77415317  0.44190526  0.20077580     0.10900
H580        H  0.71104573  0.59792227  0.17490031     0.16700
C581        C  0.55290330  0.17580130  0.02869397    -0.01500
C582        C  0.51738567  0.18547650  0.04163075     0.07100
C583        C  0.47777672  0.15258032  0.04395974    -0.07500
C584        C  0.47326943  0.11032271  0.03375403     0.04500
C585        C  0.50906776  0.10025371  0.02092773    -0.14700
C586        C  0.54875845  0.13316221  0.01859737    -0.08100
C587        C  0.51927424  0.23044224  0.05254220     0.05400
C588        C  0.47984333  0.26475522  0.05154103    -0.09200
C589        C  0.47808563  0.30629118  0.06226404     0.00400
C590        C  0.51662863  0.31429989  0.07422811     0.00300
C591        C  0.55651925  0.28020634  0.07504106    -0.12700
C592        C  0.55781839  0.23822417  0.06448641     0.00800
C593        C  0.43670182  0.34039975  0.06045521     0.40100
C594        C  0.59774841  0.20256373  0.06670610     0.36700
C595        C  0.59305274  0.20962549  0.02522718     0.36400
C596        C  0.43081989  0.07864034  0.03638327     0.37200
N597        N  0.40339118  0.36753656  0.05890223    -0.43600
N598        N  0.62970611  0.17396618  0.06849679    -0.44100
N599        N  0.39676016  0.05330025  0.03845404    -0.41400
N600        N  0.62531032  0.23662455  0.02240069    -0.42900
H601        H  0.57662112  0.12546847  0.00887218     0.13300
H602        H  0.45010671  0.16014686  0.05377592     0.09800
H603        H  0.45009169  0.25879543  0.04239516     0.10900
H604        H  0.58596865  0.28533467  0.08434785     0.16700
C605        C  0.46501512  0.78471537  0.06450389    -0.01500
C606        C  0.49677838  0.78464212  0.05008379     0.07100
C607        C  0.52809543  0.74345193  0.04726243    -0.07500
C608        C  0.52805796  0.70281233  0.05854137     0.04500
C609        C  0.49581261  0.70275727  0.07284573    -0.14700
C610        C  0.46415899  0.74369319  0.07552630    -0.08100
C611        C  0.49965798  0.82834190  0.03841580     0.05400
C612        C  0.54297186  0.85713944  0.03848535    -0.09200
C613        C  0.54590258  0.90071785  0.02875246     0.00400
C614        C  0.50497792  0.91626621  0.01869654     0.00300
C615        C  0.46237566  0.88642235  0.01806478    -0.12700
C616        C  0.45949052  0.84270861  0.02776908     0.00800
C617        C  0.59154673  0.92862043  0.02905180     0.40100
C618        C  0.41509110  0.81308534  0.02655946     0.36700
C619        C  0.43497014  0.82757817  0.06878493     0.36400
C620        C  0.56051933  0.66115935  0.05494506     0.37200
N621        N  0.62811523  0.95103810  0.02918210    -0.43600
N622        N  0.37948948  0.78935453  0.02555446    -0.44100
N623        N  0.58648775  0.62777222  0.05200381    -0.41400
N624        N  0.41117830  0.86204343  0.07232244    -0.42900
H625        H  0.43991235  0.74443250  0.08664076     0.13300
H626        H  0.55281522  0.74321928  0.03627201     0.09800
H627        H  0.57424257  0.84600647  0.04643176     0.10900
H628        H  0.43102802  0.89775064  0.01018396     0.16700
C629        C  0.54491910  0.16002511  0.96225098    -0.01500
C630        C  0.50420935  0.19350909  0.96312500     0.07100
C631        C  0.46332398  0.18159617  0.97354422    -0.07500
C632        C  0.46269246  0.13748108  0.98306549     0.04500
C633        C  0.50396345  0.10471950  0.98253084    -0.14700
C634        C  0.54466113  0.11641520  0.97202005    -0.08100
C635        C  0.50178740  0.23882889  0.95217686     0.05400
C636        C  0.46378365  0.24283735  0.93990136    -0.09200
C637        C  0.46210314  0.28261730  0.92835131     0.00400
C638        C  0.49932159  0.31946610  0.92889694     0.00300
C639        C  0.53633541  0.31628747  0.94156710    -0.12700
C640        C  0.53749330  0.27686754  0.95327444     0.00800
C641        C  0.42330378  0.28292124  0.91554281     0.40100
C642        C  0.57542176  0.27652503  0.96637810     0.36700
C643        C  0.58615495  0.16834047  0.95074341     0.36400
C644        C  0.41811643  0.12521586  0.99243485     0.37200
N645        N  0.39217049  0.28291977  0.90529086    -0.43600
N646        N  0.60594779  0.27630356  0.97683946    -0.44100
N647        N  0.38206246  0.11531629  0.99976535    -0.41400
N648        N  0.61905828  0.17524357  0.94148340    -0.42900
H649        H  0.57604640  0.09090592  0.97125433     0.13300
H650        H  0.43130716  0.20638634  0.97393866     0.09800
H651        H  0.43610136  0.21388075  0.93900511     0.10900
H652        H  0.56450077  0.34479091  0.94235855     0.16700
C653        C  0.54489763  0.84410490  0.97204768    -0.01500
C654        C  0.50500042  0.83346785  0.96091805     0.07100
C655        C  0.46396750  0.86592011  0.96014391    -0.07500
C656        C  0.46271461  0.90915445  0.96998907     0.04500
C657        C  0.50334888  0.92064169  0.98066710    -0.14700
C658        C  0.54410952  0.88786593  0.98161597    -0.08100
C659        C  0.50521791  0.78903872  0.94981517     0.05400
C660        C  0.46817938  0.75326489  0.95210364    -0.09200
C661        C  0.46545699  0.71204572  0.94127592     0.00400
C662        C  0.50060748  0.70617702  0.92794429     0.00300
C663        C  0.53807690  0.74166017  0.92586993    -0.12700
C664        C  0.54020652  0.78322260  0.93648190     0.00800
C665        C  0.42700793  0.67602867  0.94440004     0.40100
C666        C  0.57701697  0.82056156  0.93288531     0.36700
C667        C  0.58619743  0.81006449  0.97425056     0.36400
C668        C  0.41879411  0.94037281  0.96935758     0.37200
N669        N  0.39606774  0.64730970  0.94694171    -0.43600
N670        N  0.60644350  0.85049698  0.92994640    -0.44100
N671        N  0.38356008  0.96536118  0.96895088    -0.41400
N672        N  0.61924779  0.78277530  0.97611033    -0.42900
H673        H  0.57517407  0.89637126  0.98995919     0.13300
H674        H  0.43291930  0.85745117  0.95178049     0.09800
H675        H  0.44117142  0.75777595  0.96234483     0.10900
H676        H  0.56482259  0.73786922  0.91551815     0.16700
C677        C  0.04079779  0.24862123  0.68466738    -0.01500
C678        C  0.00598590  0.25551223  0.69798947     0.07100
C679        C  0.96813697  0.22070778  0.70032576    -0.07500
C680        C  0.96427339  0.17946139  0.68953784     0.04500
C681        C  0.99855217  0.17287019  0.67595745    -0.14700
C682        C  0.03709440  0.20734429  0.67389928    -0.08100
C683        C  0.00751146  0.29944659  0.70936195     0.05400
C684        C  0.97000601  0.33545549  0.70788034    -0.09200
C685        C  0.97007528  0.37786966  0.71818461     0.00400
C686        C  0.00877245  0.38546189  0.73032230     0.00300
C687        C  0.04552093  0.34788107  0.73202789    -0.12700
C688        C  0.04504913  0.30540488  0.72171880     0.00800
C689        C  0.92982350  0.41314286  0.71585503     0.40100
C690        C  0.08274168  0.26763934  0.72438204     0.36700
C691        C  0.07929260  0.28446827  0.68136951     0.36400
C692        C  0.92622571  0.14359925  0.69326633     0.37200
N693        N  0.89776713  0.44156243  0.71394951    -0.43600
N694        N  0.11282023  0.23730212  0.72654396    -0.44100
N695        N  0.89585514  0.11492572  0.69654131    -0.41400
N696        N  0.11002960  0.31326979  0.67867034    -0.42900
H697        H  0.06361037  0.20290204  0.66351241     0.13300
H698        H  0.94164658  0.22573707  0.71069810     0.09800
H699        H  0.94062941  0.33048388  0.69851966     0.10900
H700        H  0.07451655  0.35010223  0.74147637     0.16700
C701        C  0.04601116  0.71773171  0.69027230    -0.01500
C702        C  0.00448384  0.70649430  0.70054977     0.07100
C703        C  0.96242677  0.73765725  0.70006910    -0.07500
C704        C  0.96073491  0.77899246  0.68920053     0.04500
C705        C  0.00203812  0.78995244  0.67863815    -0.14700
C706        C  0.04466382  0.75931375  0.67956930    -0.08100
C707        C  0.00295927  0.66073162  0.71106462     0.05400
C708        C  0.03242823  0.65697916  0.72582731    -0.09200
C709        C  0.03274359  0.61360628  0.73576050     0.00400
C710        C  0.00355849  0.57258215  0.73072491     0.00300
C711        C  0.97334665  0.57720859  0.71608082    -0.12700
C712        C  0.97275625  0.62063050  0.70632660     0.00800
C713        C  0.06447382  0.61252855  0.75065158     0.40100
C714        C  0.94180603  0.62277106  0.69122283     0.36700
C715        C  0.08941117  0.68574373  0.68977873     0.36400
C716        C  0.91614279  0.80929365  0.68924923     0.37200
N717        N  0.08985930  0.61337792  0.76261917    -0.43600
N718        N  0.91698070  0.62465581  0.67912638    -0.44100
N719        N  0.88018512  0.83327145  0.68937280    -0.41400
N720        N  0.12419587  0.66015275  0.68923258    -0.42900
H721        H  0.07649967  0.76650159  0.67146054     0.13300
H722        H  0.93047815  0.72905263  0.70799664     0.09800
H723        H  0.05548478  0.68802287  0.72952728     0.10900
H724        H  0.95011208  0.54653379  0.71215998     0.16700
C725        C  0.23578844  0.55859662  0.81477035    -0.01500
C726        C  0.22267915  0.51738851  0.80476653     0.07100
C727        C  0.25421512  0.47582545  0.80429197    -0.07500
C728        C  0.29754446  0.47382405  0.81414831     0.04500
C729        C  0.30915323  0.51366332  0.82516616    -0.14700
C730        C  0.27862793  0.55634880  0.82496073    -0.08100
C731        C  0.17721575  0.51670029  0.79414560     0.05400
C732        C  0.18296148  0.51514788  0.77634983    -0.09200
C733        C  0.14221633  0.50639061  0.76575147     0.00400
C734        C  0.09448065  0.49997405  0.77298479     0.00300
C735        C  0.08810932  0.50422425  0.79073117    -0.12700
C736        C  0.12932342  0.51175661  0.80140663     0.00800
C737        C  0.15052108  0.50315641  0.74750967     0.40100
C738        C  0.12228638  0.51040004  0.81973053     0.36700
C739        C  0.20643456  0.60366593  0.81447089     0.36400
C740        C  0.33003209  0.43136411  0.81202851     0.37200
N741        N  0.15729595  0.50028274  0.73290945    -0.43600
N742        N  0.11673334  0.50893128  0.83441728    -0.44100
N743        N  0.35587512  0.39726018  0.81010935    -0.41400
N744        N  0.18304982  0.63987734  0.81411617    -0.42900
H745        H  0.28767430  0.58781033  0.83299576     0.13300
H746        H  0.24488221  0.44475877  0.79609094     0.09800
H747        H  0.21981024  0.51881892  0.77079221     0.10900
H748        H  0.05150778  0.49873716  0.79628805     0.16700
C749        C  0.87496554  0.45750030  0.79992216    -0.01500
C750        C  0.84047804  0.49693981  0.79826413     0.07100
C751        C  0.84785934  0.53260143  0.78544572    -0.07500
C752        C  0.88783844  0.52840113  0.77392268     0.04500
C753        C  0.92158932  0.48824265  0.77529866    -0.14700
C754        C  0.91503160  0.45344664  0.78847489    -0.08100
C755        C  0.79518763  0.50042619  0.80920756     0.05400
C756        C  0.79212616  0.53739425  0.82177456    -0.09200
C757        C  0.74965947  0.54223727  0.83215068     0.00400
C758        C  0.70891024  0.50990341  0.82986998     0.00300
C759        C  0.71237065  0.47253997  0.81741037    -0.12700
C760        C  0.75483072  0.46784054  0.80703303     0.00800
C761        C  0.75021887  0.57895368  0.84558881     0.40100
C762        C  0.75580291  0.43006468  0.79394911     0.36700
C763        C  0.86964180  0.42052399  0.81314718     0.36400
C764        C  0.89122205  0.56370013  0.76010340     0.37200
N765        N  0.75080737  0.60825033  0.85640666    -0.43600
N766        N  0.75676877  0.39990205  0.78342316    -0.44100
N767        N  0.89329068  0.59196624  0.74898885    -0.41400
N768        N  0.86536545  0.39080374  0.82371931    -0.42900
H769        H  0.94094375  0.42255656  0.78964710     0.13300
H770        H  0.82125372  0.56280620  0.78406671     0.09800
H771        H  0.82329404  0.56216131  0.82360211     0.10900
H772        H  0.68150304  0.44740670  0.81560809     0.16700
C773        C  0.61539154  0.97903003  0.70391947    -0.01500
C774        C  0.66418665  0.99008328  0.70933903     0.07100
C775        C  0.67167757  0.00789199  0.72598257    -0.07500
C776        C  0.63149198  0.01543837  0.73715090     0.04500
C777        C  0.58225312  0.00572509  0.73158562    -0.14700
C778        C  0.57502292  0.98666821  0.71505243    -0.08100
C779        C  0.70773976  0.98652826  0.69761324     0.05400
C780        C  0.73070359  0.03041364  0.69239456    -0.09200
C781        C  0.77199075  0.02959944  0.68141566     0.00400
C782        C  0.79217817  0.98374552  0.67569905     0.00300
C783        C  0.76894625  0.93970696  0.68107653    -0.12700
C784        C  0.72702682  0.94079050  0.69183348     0.00800
C785        C  0.79174755  0.07673839  0.67610053     0.40100
C786        C  0.70482251  0.89453142  0.69695709     0.36700
C787        C  0.60564434  0.96160154  0.68679229     0.36400
C788        C  0.64239285  0.03197504  0.75432603     0.37200
N789        N  0.80678698  0.11481880  0.67178254    -0.43600
N790        N  0.68683995  0.85749681  0.70100545    -0.44100
N791        N  0.65148524  0.04551496  0.76802445    -0.41400
N792        N  0.59784689  0.94753662  0.67306641    -0.42900
H793        H  0.53760156  0.97900818  0.71062934     0.13300
H794        H  0.70918885  0.01609504  0.73023083     0.09800
H795        H  0.71575986  0.06568252  0.69677895     0.10900
H796        H  0.78312969  0.90409547  0.67685149     0.16700
C797        C  0.25992566  0.03064004  0.68907489    -0.01500
C798        C  0.28042227  0.98630698  0.69568381     0.07100
C799        C  0.25635543  0.94147071  0.69225117    -0.07500
C800        C  0.21362054  0.94000115  0.68189208     0.04500
C801        C  0.19476227  0.98408489  0.67432110    -0.14700
C802        C  0.21812697  0.02913935  0.67834293    -0.08100
C803        C  0.32541377  0.98630778  0.70687982     0.05400
C804        C  0.32046367  0.97229850  0.72409784    -0.09200
C805        C  0.36073525  0.97593667  0.73544052     0.00400
C806        C  0.40703003  0.99360111  0.72958522     0.00300
C807        C  0.41291428  0.00494970  0.71218538    -0.12700
C808        C  0.37259864  0.00128061  0.70080493     0.00800
C809        C  0.35354731  0.96234266  0.75314360     0.40100
C810        C  0.38029878  0.01341914  0.68299975     0.36700
C811        C  0.27979633  0.07837716  0.69370094     0.36400
C812        C  0.18917731  0.89292524  0.67989402     0.37200
N813        N  0.34794121  0.95132971  0.76733032    -0.43600
N814        N  0.38637687  0.02309715  0.66871799    -0.44100
N815        N  0.16961339  0.85506657  0.67856709    -0.41400
N816        N  0.29524373  0.11675022  0.69749223    -0.42900
H817        H  0.20387394  0.06367640  0.67318779     0.13300
H818        H  0.27089810  0.90745921  0.69779740     0.09800
H819        H  0.28460768  0.96002374  0.72880375     0.10900
H820        H  0.44844952  0.01858891  0.70763248     0.16700
C821        C  0.48433597  0.15096192  0.80139195    -0.01500
C822        C  0.48430470  0.19628328  0.79255103     0.07100
C823        C  0.48098982  0.19652918  0.77470935    -0.07500
C824        C  0.47917848  0.15204220  0.76551135     0.04500
C825        C  0.48155013  0.10569613  0.77419367    -0.14700
C826        C  0.48281811  0.10640144  0.79229470    -0.08100
C827        C  0.48857062  0.24363520  0.80189673     0.05400
C828        C  0.53564979  0.26477252  0.80390722    -0.09200
C829        C  0.54238816  0.30605718  0.81451778     0.00400
C830        C  0.50116346  0.32627411  0.82361129     0.00300
C831        C  0.45353103  0.30652268  0.82056292    -0.12700
C832        C  0.44704204  0.26559344  0.80988257     0.00800
C833        C  0.59193704  0.32615882  0.81552450     0.40100
C834        C  0.39767123  0.24571289  0.80769459     0.36700
C835        C  0.48729310  0.14936634  0.81986860     0.36400
C836        C  0.47587680  0.15526109  0.74708033     0.37200
N837        N  0.63207227  0.34151881  0.81598442    -0.43600
N838        N  0.35812351  0.22974219  0.80592373    -0.44100
N839        N  0.47310549  0.15760828  0.73231527    -0.41400
N840        N  0.48971693  0.14825114  0.83465833    -0.42900
H841        H  0.48371527  0.07293342  0.79975475     0.13300
H842        H  0.48030451  0.23164500  0.76794663     0.09800
H843        H  0.56749003  0.24809704  0.79747252     0.10900
H844        H  0.42111199  0.32188939  0.82701194     0.16700
C845        C  0.47770920  0.83077260  0.77372027    -0.01500
C846        C  0.50654901  0.82476146  0.78869851     0.07100
C847        C  0.53704398  0.86353739  0.79414270    -0.07500
C848        C  0.53646782  0.90907880  0.78566695     0.04500
C849        C  0.50363332  0.91688098  0.77172861    -0.14700
C850        C  0.47601976  0.87687879  0.76545861    -0.08100
C851        C  0.50373965  0.77979657  0.79956776     0.05400
C852        C  0.54735024  0.75241536  0.80282423    -0.09200
C853        C  0.54746292  0.71302353  0.81451196     0.00400
C854        C  0.50311971  0.70055903  0.82328507     0.00300
C855        C  0.45930765  0.72758853  0.81969143    -0.12700
C856        C  0.45934575  0.76702879  0.80809462     0.00800
C857        C  0.59367345  0.68631580  0.81711321     0.40100
C858        C  0.41391860  0.79544383  0.80588413     0.36700
C859        C  0.44968296  0.79020438  0.76665916     0.36400
C860        C  0.57049875  0.94678146  0.79142917     0.37200
N861        N  0.63094247  0.66518841  0.81907029    -0.43600
N862        N  0.37748360  0.81809170  0.80408193    -0.44100
N863        N  0.59786817  0.97680958  0.79609526    -0.41400
N864        N  0.42740905  0.75756116  0.76098382    -0.42900
H865        H  0.45184148  0.88206062  0.75447071     0.13300
H866        H  0.56049518  0.85858177  0.80533761     0.09800
H867        H  0.58163754  0.76241288  0.79637562     0.10900
H868        H  0.42501242  0.71929633  0.82636380     0.16700
C869        C  0.17335095  0.47358074  0.02694993    -0.01500
C870        C  0.18083184  0.50839961  0.04016601     0.07100
C871        C  0.14553873  0.54631849  0.04268768    -0.07500
C872        C  0.10256944  0.54916543  0.03259943     0.04500
C873        C  0.09415660  0.51336096  0.01975784    -0.14700
C874        C  0.12989174  0.47585165  0.01705684    -0.08100
C875        C  0.22511124  0.50621757  0.05154432     0.05400
C876        C  0.25791828  0.54641001  0.05175164    -0.09200
C877        C  0.29954650  0.54647437  0.06256378     0.00400
C878        C  0.30898414  0.50554375  0.07341423     0.00300
C879        C  0.27604400  0.46535365  0.07317775    -0.12700
C880        C  0.23412119  0.46561090  0.06253213     0.00800
C881        C  0.33251103  0.58844882  0.06189522     0.40100
C882        C  0.20000686  0.42459092  0.06356875     0.36700
C883        C  0.21004272  0.43567944  0.02319122     0.36400
C884        C  0.06782767  0.58944714  0.03554506     0.37200
N885        N  0.35881483  0.62216640  0.06125631    -0.43600
N886        N  0.17277275  0.39163978  0.06435587    -0.44100
N887        N  0.03972755  0.62152173  0.03784780    -0.41400
N888        N  0.23955339  0.40530302  0.02030224    -0.42900
H889        H  0.12361150  0.44797091  0.00733087     0.13300
H890        H  0.15141089  0.57352426  0.05268836     0.09800
H891        H  0.25101316  0.57777894  0.04337242     0.10900
H892        H  0.28212907  0.43416493  0.08168975     0.16700
C893        C  0.77230591  0.55280348  0.06343246    -0.01500
C894        C  0.77827434  0.51526853  0.05099972     0.07100
C895        C  0.74291068  0.47728978  0.05000942    -0.07500
C896        C  0.70170041  0.47665991  0.06103581     0.04500
C897        C  0.69532715  0.51488954  0.07319573    -0.14700
C898        C  0.73074864  0.55267839  0.07418363    -0.08100
C899        C  0.82213749  0.51383336  0.03942054     0.05400
C900        C  0.85449917  0.47280696  0.04018496    -0.09200
C901        C  0.89778478  0.47100413  0.03021619     0.00400
C902        C  0.90931133  0.51087532  0.01923870     0.00300
C903        C  0.87622242  0.55130833  0.01812665    -0.12700
C904        C  0.83257882  0.55279354  0.02792685     0.00800
C905        C  0.92936394  0.42752439  0.03127238     0.40100
C906        C  0.79890480  0.59439335  0.02586306     0.36700
C907        C  0.80913501  0.59084954  0.06591523     0.36400
C908        C  0.66598163  0.43722520  0.05928674     0.37200
N909        N  0.95453818  0.39256316  0.03201491    -0.43600
N910        N  0.77195660  0.62779410  0.02430898    -0.44100
N911        N  0.63744370  0.40559028  0.05779566    -0.41400
N912        N  0.83835229  0.62158955  0.06794670    -0.42900
H913        H  0.72687481  0.58150499  0.08377319     0.13300
H914        H  0.74752134  0.44814687  0.04056547     0.09800
H915        H  0.84627413  0.44243746  0.04880514     0.10900
H916        H  0.88480602  0.58204752  0.00971758     0.16700
C917        C  0.15259010  0.47472244  0.96282606    -0.01500
C918        C  0.18278541  0.51725432  0.96204485     0.07100
C919        C  0.16805683  0.56022444  0.97088894    -0.07500
C920        C  0.12423613  0.56105329  0.98062515     0.04500
C921        C  0.09446601  0.51835877  0.98151581    -0.14700
C922        C  0.10874833  0.47568609  0.97248494    -0.08100
C923        C  0.22801760  0.51861259  0.95116295     0.05400
C924        C  0.22836051  0.55052560  0.93701298    -0.09200
C925        C  0.26854791  0.55067033  0.92562559     0.00400
C926        C  0.30930438  0.51807146  0.92830212     0.00300
C927        C  0.30949850  0.48693110  0.94268699    -0.12700
C928        C  0.26958467  0.48752102  0.95425260     0.00800
C929        C  0.26554861  0.58254278  0.91079199     0.40100
C930        C  0.27215906  0.45645822  0.96928411     0.36700
C931        C  0.16516271  0.43013372  0.95350009     0.36400
C932        C  0.10977326  0.60638749  0.98914783     0.37200
N933        N  0.26323298  0.60794875  0.89887245    -0.43600
N934        N  0.27396164  0.43164159  0.98135504    -0.44100
N935        N  0.09821729  0.64286879  0.99590636    -0.41400
N936        N  0.17551265  0.39433210  0.94611136    -0.42900
H937        H  0.08552297  0.44299330  0.97304389     0.13300
H938        H  0.19073507  0.59324325  0.97007530     0.09800
H939        H  0.19642096  0.57445980  0.93460769     0.10900
H940        H  0.34101318  0.46233285  0.94493649     0.16700
C941        C  0.85314278  0.56207445  0.96260256    -0.01500
C942        C  0.82245928  0.51996425  0.96155448     0.07100
C943        C  0.83637752  0.47645993  0.97017288    -0.07500
C944        C  0.88008503  0.47436209  0.97983442     0.04500
C945        C  0.91030519  0.51665574  0.98116710    -0.14700
C946        C  0.89665063  0.56015445  0.97245295    -0.08100
C947        C  0.77766393  0.51891623  0.95054837     0.05400
C948        C  0.77742434  0.48628202  0.93659740    -0.09200
C949        C  0.73632226  0.48379029  0.92570205     0.00400
C950        C  0.69444920  0.51459258  0.92872781     0.00300
C951        C  0.69452556  0.54709744  0.94274276    -0.12700
C952        C  0.73550097  0.54901843  0.95379660     0.00800
C953        C  0.73931891  0.45127985  0.91103764     0.40100
C954        C  0.73312474  0.58117601  0.96855493     0.36700
C955        C  0.84173267  0.60683874  0.95320090     0.36400
C956        C  0.89424843  0.42775196  0.98754212     0.37200
N957        N  0.74172769  0.42537065  0.89925392    -0.43600
N958        N  0.73138493  0.60690261  0.98039691    -0.44100
N959        N  0.90534297  0.39002624  0.99352665    -0.41400
N960        N  0.83247552  0.64269543  0.94567395    -0.42900
H961        H  0.92025974  0.59251800  0.97328508     0.13300
H962        H  0.81335449  0.44373638  0.96907955     0.09800
H963        H  0.80990701  0.46317022  0.93407868     0.10900
H964        H  0.66231751  0.57069041  0.94513255     0.16700
C965        C  0.67378542  0.98692125  0.27561714    -0.01500
C966        C  0.66951490  0.97628412  0.29329123     0.07100
C967        C  0.62158800  0.97140214  0.30038202    -0.07500
C968        C  0.57863883  0.97907112  0.29040533     0.04500
C969        C  0.58323750  0.99296548  0.27305136    -0.14700
C970        C  0.63100030  0.99554390  0.26578692    -0.08100
C971        C  0.71413443  0.97572534  0.30478812     0.05400
C972        C  0.74641096  0.01643330  0.30434763    -0.09200
C973        C  0.78831180  0.01882906  0.31495293     0.00400
C974        C  0.79728079  0.98122889  0.32720179     0.00300
C975        C  0.76552701  0.93999054  0.32748962    -0.12700
C976        C  0.72453758  0.93675055  0.31638253     0.00800
C977        C  0.82248412  0.05907194  0.31218881     0.40100
C978        C  0.69444875  0.89268648  0.31701952     0.36700
C979        C  0.72169713  0.98988197  0.26725470     0.36400
C980        C  0.53063085  0.97505841  0.29857942     0.37200
N981        N  0.84982558  0.09120856  0.30966115    -0.43600
N982        N  0.67067781  0.85714690  0.31767372    -0.44100
N983        N  0.49242714  0.97131068  0.30531001    -0.41400
N984        N  0.76009096  0.99262960  0.26058167    -0.42900
H985        H  0.63491316  0.00498591  0.25234965     0.13300
H986        H  0.61762575  0.96368776  0.31393909     0.09800
H987        H  0.73893589  0.04673457  0.29556862     0.10900
H988        H  0.77233097  0.91028720  0.33656907     0.16700
C989        C  0.32868442  0.95238375  0.27842594    -0.01500
C990        C  0.31806970  0.98280859  0.29267082     0.07100
C991        C  0.35176166  0.01991192  0.29729270    -0.07500
C992        C  0.39534854  0.02735636  0.28785167     0.04500
C993        C  0.40622583  0.99681542  0.27364757    -0.14700
C994        C  0.37222437  0.96014316  0.26890232    -0.08100
C995        C  0.27173537  0.97732834  0.30284069     0.05400
C996        C  0.26651109  0.93589635  0.31345178    -0.09200
C997        C  0.22542783  0.93139380  0.32440686     0.00400
C998        C  0.18812515  0.96891461  0.32471879     0.00300
C999        C  0.19317494  0.00996706  0.31377679    -0.12700
C1000       C  0.23437992  0.01434238  0.30286872     0.00800
C1001       C  0.22494187  0.88958947  0.33591446     0.40100
C1002       C  0.23767268  0.05695937  0.29174383     0.36700
C1003       C  0.29438970  0.91457470  0.27299977     0.36400
C1004       C  0.42775486  0.06750115  0.29264363     0.37200
N1005       N  0.22526759  0.85592856  0.34510205    -0.43600
N1006       N  0.24058570  0.09091957  0.28275680    -0.44100
N1007       N  0.45375190  0.09977191  0.29634169    -0.41400
N1008       N  0.26678781  0.88427484  0.26871940    -0.42900
H1009       H  0.37856608  0.93899846  0.25726033     0.13300
H1010       H  0.34357309  0.04353218  0.30817964     0.09800
H1011       H  0.29562239  0.90772092  0.31358067     0.10900
H1012       H  0.16495263  0.03902589  0.31383856     0.16700
C1013       C  0.47131567  0.23923495  0.18482460    -0.01500
C1014       C  0.50345201  0.23644435  0.19905227     0.07100
C1015       C  0.53626941  0.27546601  0.20233328    -0.07500
C1016       C  0.53779288  0.31684549  0.19147565     0.04500
C1017       C  0.50652957  0.31903523  0.17694932    -0.14700
C1018       C  0.47294922  0.28037281  0.17395932    -0.08100
C1019       C  0.50257446  0.19309132  0.21067657     0.05400
C1020       C  0.53841923  0.15561125  0.20872444    -0.09200
C1021       C  0.53640335  0.11219608  0.21856196     0.00400
C1022       C  0.49729448  0.10513313  0.23061053     0.00300
C1023       C  0.46279575  0.14455542  0.23291505    -0.12700
C1024       C  0.46510812  0.18781527  0.22307498     0.00800
C1025       C  0.57523529  0.07556890  0.21594920     0.40100
C1026       C  0.42871619  0.22666823  0.22601966     0.36700
C1027       C  0.43706394  0.19978842  0.18097530     0.36400
C1028       C  0.56937349  0.35774146  0.19608482     0.37200
N1029       N  0.60637567  0.04626076  0.21386093    -0.43600
N1030       N  0.39963032  0.25779924  0.22842530    -0.44100
N1031       N  0.59408771  0.39083455  0.19995265    -0.41400
N1032       N  0.40969795  0.16809080  0.17791021    -0.42900
H1033       H  0.44860909  0.28173547  0.16287781     0.13300
H1034       H  0.56024278  0.27380510  0.21350398     0.09800
H1035       H  0.56770559  0.16003015  0.19928510     0.10900
H1036       H  0.43404010  0.14323357  0.24247912     0.16700
C1037       C  0.52546187  0.87062066  0.20488010    -0.01500
C1038       C  0.50162653  0.82777539  0.21083758     0.07100
C1039       C  0.47854218  0.82855536  0.22688428    -0.07500
C1040       C  0.47718020  0.87183496  0.23683595     0.04500
C1041       C  0.49863270  0.91630100  0.23050742    -0.14700
C1042       C  0.52411943  0.91398973  0.21469316    -0.08100
C1043       C  0.49867176  0.78248557  0.20013959     0.05400
C1044       C  0.54063759  0.75163770  0.19851524    -0.09200
C1045       C  0.53997352  0.71029592  0.18764357     0.00400
C1046       C  0.49685580  0.69985738  0.17787448     0.00300
C1047       C  0.45428283  0.72995380  0.18008075    -0.12700
C1048       C  0.45485963  0.77080114  0.19113977     0.00800
C1049       C  0.58360992  0.67868062  0.18720766     0.40100
C1050       C  0.41047639  0.80107467  0.19274950     0.36700
C1051       C  0.55017895  0.87136620  0.18845301     0.36400
C1052       C  0.45317457  0.86796820  0.25327299     0.37200
N1053       N  0.61867158  0.65342823  0.18712742    -0.43600
N1054       N  0.37496599  0.82536322  0.19414894    -0.44100
N1055       N  0.43464362  0.86251757  0.26652001    -0.41400
N1056       N  0.56990180  0.87194238  0.17527523    -0.42900
H1057       H  0.54310552  0.94633027  0.20980111     0.13300
H1058       H  0.46090661  0.79512713  0.23156134     0.09800
H1059       H  0.57405726  0.76007094  0.20572042     0.10900
H1060       H  0.42078279  0.72259397  0.17281964     0.16700
loop_ 
_geom_bond_atom_site_label_1 
_geom_bond_atom_site_label_2 
_geom_bond_distance 
_geom_bond_site_symmetry_2 
_ccdc_geom_bond_type 
C1            C2   1.538       .  S
C1            C7   1.540       .  S
C1            C5   1.534       .  S
C1         C1022   1.543       .  S
C2            H9   1.080       .  S
C2            C3   1.359       .  D
C3            C4   1.543   1_545  S
C3          C993   1.480   1_545  S
C4            C8   1.548       .  S
C4            C6   1.540   1_565  S
C4           H10   1.103       .  S
C5           H11   1.087       .  S
C5            C6   1.365       .  D
C6          C969   1.490   1_545  S
C7           H12   1.085       .  S
C7            C8   1.377   1_545  D
C8         C1041   1.508       .  S
C13          C14   1.412   1_554  A
C13          C18   1.401   1_655  A
C13         C902   1.485       .  S
C14          C15   1.400   1_655  A
C14         C945   1.478       .  S
C15          C16   1.400       .  A
C15          H20   1.085       .  S
C16          C17   1.413   1_556  A
C16         C921   1.478       .  S
C17          C18   1.403       .  A
C17         C873   1.486       .  S
C18          H19   1.084       .  S
C21          C22   1.538       .  S
C21          C27   1.544       .  S
C21          C25   1.532       .  S
C21         C825   1.538       .  S
C22          H29   1.086       .  S
C22          C23   1.366       .  D
C23          C24   1.539   1_545  S
C23         C777   1.490       .  S
C24          C28   1.537       .  S
C24          C26   1.543   1_565  S
C24          H30   1.110       .  S
C25          H31   1.087       .  S
C25          C26   1.363       .  D
C26         C806   1.482   1_545  S
C27          H32   1.079       .  S
C27          C28   1.366   1_545  D
C28         C849   1.484       .  S
C33          C34   1.540       .  S
C33          C39   1.537       .  S
C33          C37   1.534   1_455  S
C33         C686   1.539       .  S
C34          H41   1.080       .  S
C34          C35   1.364       .  D
C35          C36   1.537       .  S
C35         C734   1.474       .  S
C36          C40   1.543       .  S
C36          C38   1.541   1_455  S
C36          H42   1.110       .  S
C37          H43   1.086       .  S
C37          C38   1.364       .  D
C38         C753   1.486       .  S
C39          H44   1.086       .  S
C39          C40   1.368       .  D
C40         C710   1.493       .  S
C45          C46   1.411   1_554  A
C45          C50   1.401   1_565  A
C45         C614   1.492       .  S
C46          C47   1.405   1_565  A
C46         C657   1.479       .  S
C47          C48   1.403       .  A
C47          H52   1.085       .  S
C48          C49   1.416   1_556  A
C48         C633   1.491       .  S
C49          C50   1.406       .  A
C49         C585   1.485       .  S
C50          H51   1.084       .  S
C53          C90   1.456       .  S
C53         C950   1.471       .  S
C53          N71   1.349       .  A
N54          N71   1.322       .  A
N54          N76   1.320       .  A
N54         Co91   2.080       .  S
C55          C93   1.462       .  S
C55         H100   1.081       .  S
C55          N80   1.337       .  A
H56          C97   1.081       .  S
C57          C61   1.460       .  S
C57          H86   1.082       .  S
C57          N81   1.342       .  A
Co58         N76   2.077       .  S
Co58         N66   2.078       .  S
Co58         N98   2.082       .  S
Co58         N74   2.086       .  S
Co58       Cl102   2.447       .  S
N59          C97   1.339       .  A
N59          N66   1.317       .  A
N59         Co60   2.072       .  S
Co60         N63   2.078       .  S
Co60         N80   2.077       .  S
Co60         N67   2.072       .  S
Co60       Cl102   2.445       .  S
C61         C926   1.475       .  S
C61          N99   1.348       .  A
N62          N69   1.319       .  A
N62          N92   1.325       .  A
N62         Co95   2.079       .  S
N63          N81   1.320       .  A
N63          N99   1.322       .  A
N64          C93   1.353       .  A
N64          N74   1.325       .  A
H65          C90   1.082       .  S
N66          N87   1.322       .  A
N67          N85   1.317       .  A
N67          N72   1.323       .  A
C68          C96   1.462       .  S
C68         C729   1.480       .  S
C68          N72   1.350       .  A
N69          C84   1.342       .  A
N69         Co91   2.091       .  S
C70          C73   1.462       .  S
C70         H104   1.081       .  S
C70          N98   1.340       .  A
C73         C758   1.484       .  S
C73          N94   1.351       .  A
N74          N80   1.319       .  A
N75         C101   1.339       .  A
N75          N77   1.318       .  A
N75         Co91   2.082       .  S
N76          C90   1.339       .  A
N77         N105   1.321       .  A
N77         Co95   2.082       .  S
H78         C101   1.078       .  S
H79          C96   1.080       .  S
N81         Co95   2.084       .  S
N82          N94   1.326       .  A
N82          N98   1.320       .  A
N82         Co91   2.090       .  S
C83          C97   1.460       .  S
C83         C662   1.475       .  S
C83          N87   1.350       .  A
C84         C103   1.463       .  S
C84          H88   1.081       .  S
N85          C96   1.337       .  A
N85         Co95   2.075       .  S
C89         C101   1.468       .  S
C89         C830   1.490       .  S
C89         N105   1.352       .  A
Co91       Cl102   2.447       .  S
N92         C103   1.350       .  A
C93         C854   1.486       .  S
Co95       Cl102   2.447       .  S
C103        C638   1.486       .  S
C106        C143   1.465       .  S
C106       C1046   1.488       .  S
C106        N124   1.351       .  A
N107        N124   1.325       .  A
N107        N129   1.320       .  A
N107       Co144   2.089       .  S
C108        C146   1.462       .  S
C108        H153   1.081       .  S
C108        N133   1.339       .  A
H109        C150   1.079       .  S
C110        C114   1.463       .  S
C110        H139   1.081       .  S
C110        N134   1.342       .  A
Co111       N129   2.089       .  S
Co111       N119   2.098       .  S
Co111       N151   2.091       .  S
Co111       N127   2.087       .  S
Co111      Cl155   2.454       .  S
N112        C150   1.339       .  A
N112        N119   1.318       .  A
N112       Co113   2.078       .  S
Co113       N116   2.083       .  S
Co113       N133   2.082       .  S
Co113       N120   2.089       .  S
Co113      Cl155   2.450       .  S
C114       C1017   1.478       .  S
C114        N152   1.349       .  A
N115        N122   1.319       .  A
N115        N145   1.325       .  A
N115       Co148   2.090       .  S
N116        N134   1.320       .  A
N116        N152   1.323       .  A
N117        C146   1.350       .  A
N117        N127   1.324       .  A
H118        C143   1.082       .  S
N119        N140   1.326       .  A
N120        N138   1.319       .  A
N120        N125   1.326       .  A
C121        C149   1.459       .  S
C121        C590   1.483       .  S
C121        N125   1.353       .  A
N122        C137   1.341       .  A
N122       Co144   2.085       .  S
C123        C126   1.461       .  S
C123        H157   1.081       .  S
C123        N151   1.342       .  A
C126        C609   1.485       .  S
C126        N147   1.352       .  A
N127        N133   1.320       .  A
N128        C154   1.338       .  A
N128        N130   1.320       .  A
N128       Co144   2.080       .  S
N129        C143   1.341       .  A
N130        N158   1.324       .  A
N130       Co148   2.081       .  S
H131        C154   1.082       .  S
H132        C149   1.081       .  S
N134       Co148   2.086       .  S
N135        N147   1.328       .  A
N135        N151   1.320       .  A
N135       Co144   2.094       .  S
C136        C150   1.464       .  S
C136        C542   1.494       .  S
C136        N140   1.356       .  A
C137        C156   1.465       .  S
C137        H141   1.081       .  S
N138        C149   1.339       .  A
N138       Co148   2.079       .  S
C142        C154   1.460       .  S
C142        C897   1.475       .  S
C142        N158   1.349       .  A
Co144      Cl155   2.450       .  S
N145        C156   1.353       .  A
C146        C878   1.481       .  S
Co148      Cl155   2.452       .  S
C156        C566   1.496       .  S
C159        C196   1.466   1_565  S
C159        C801   1.496       .  S
C159        N177   1.354       .  A
N160        N177   1.326       .  A
N160        N182   1.318   1_565  A
N160       Co197   2.092       .  S
C161        C199   1.466       .  S
C161        H206   1.081       .  S
C161        N186   1.341       .  A
H162        C203   1.080       .  S
C163        C167   1.466       .  S
C163        H192   1.080       .  S
C163        N187   1.341       .  A
Co164       N182   2.083       .  S
Co164       N172   2.086       .  S
Co164       N204   2.083       .  S
Co164       N180   2.078       .  S
Co164      Cl208   2.449   1_445  S
N165        C203   1.342       .  A
N165        N172   1.321   1_655  A
N165       Co166   2.091       .  S
Co166       N169   2.092       .  S
Co166       N186   2.089       .  S
Co166       N173   2.091   1_545  S
Co166      Cl208   2.453   1_545  S
C167        C782   1.496       .  S
C167        N205   1.353   1_565  A
N168        N175   1.320   1_655  A
N168        N198   1.326       .  A
N168       Co201   2.090       .  S
N169        N187   1.319   1_545  A
N169        N205   1.325       .  A
N170        C199   1.350   1_455  A
N170        N180   1.324       .  A
H171        C196   1.081       .  S
N172        N193   1.324       .  A
N173        N191   1.320       .  A
N173        N178   1.326   1_565  A
C174        C202   1.459       .  S
C174        C470   1.482       .  S
C174        N178   1.353   1_565  A
N175        C190   1.337       .  A
N175       Co197   2.079       .  S
C176        C179   1.461   1_545  S
C176        H210   1.080       .  S
C176        N204   1.340       .  A
C179        C446   1.480       .  S
C179        N200   1.348       .  A
N180        N186   1.318   1_455  A
N181        C207   1.342       .  A
N181        N183   1.318   1_455  A
N181       Co197   2.086       .  S
N182        C196   1.340       .  A
N183        N211   1.324       .  A
N183       Co201   2.078       .  S
H184        C207   1.081       .  S
H185        C202   1.080       .  S
N187       Co201   2.083       .  S
N188        N200   1.322       .  A
N188        N204   1.319   1_565  A
N188       Co197   2.076       .  S
C189        C203   1.464       .  S
C189        C681   1.483       .  S
C189        N193   1.350   1_655  A
C190        C209   1.461       .  S
C190        H194   1.080       .  S
N191        C202   1.336       .  A
N191       Co201   2.078       .  S
C195        C207   1.464   1_655  S
C195        C513   1.482       .  S
C195        N211   1.349       .  A
Co197      Cl208   2.450   1_455  S
N198        C209   1.353   1_655  A
C199        C489   1.486       .  S
Co201      Cl208   2.448       .  S
C209        C705   1.486       .  S
C212        C249   1.464   1_655  S
C212        C321   1.490       .  S
C212        N230   1.352       .  A
N213        N230   1.324       .  A
N213        N235   1.319   1_655  A
N213       Co250   2.089       .  S
C214        C252   1.464       .  S
C214        H259   1.082       .  S
C214        N239   1.341       .  A
H215        C256   1.081       .  S
C216        C220   1.463       .  S
C216        H245   1.081       .  S
C216        N240   1.340       .  A
Co217       N235   2.080       .  S
Co217       N225   2.082   1_545  S
Co217       N257   2.082       .  S
Co217       N233   2.077       .  S
Co217      Cl261   2.448   1_445  S
N218        C256   1.341       .  A
N218        N225   1.319       .  A
N218       Co219   2.088       .  S
Co219       N222   2.086       .  S
Co219       N239   2.086       .  S
Co219       N226   2.087       .  S
Co219      Cl261   2.450   1_455  S
C220        C302   1.484       .  S
C220        N258   1.352   1_655  A
N221        N228   1.319   1_565  A
N221        N251   1.325       .  A
N221       Co254   2.090       .  S
N222        N240   1.319   1_455  A
N222        N258   1.324       .  A
N223        C252   1.348   1_545  A
N223        N233   1.322       .  A
H224        C249   1.081       .  S
N225        N246   1.324   1_565  A
N226        N244   1.319   1_455  A
N226        N231   1.324       .  A
C227        C255   1.467       .  S
C227        C369   1.493       .  S
C227        N231   1.351   1_655  A
N228        C243   1.339       .  A
N228       Co250   2.082       .  S
C229        C232   1.461       .  S
C229        H263   1.081       .  S
C229        N257   1.339       .  A
C232        C345   1.483       .  S
C232        N253   1.352   1_455  A
N233        N239   1.319   1_545  A
N234        C260   1.339       .  A
N234        N236   1.320   1_545  A
N234       Co250   2.080       .  S
N235        C249   1.340       .  A
N236        N264   1.324       .  A
N236       Co254   2.088       .  S
H237        C260   1.081       .  S
H238        C255   1.082       .  S
N240       Co254   2.084       .  S
N241        N253   1.326       .  A
N241        N257   1.319   1_655  A
N241       Co250   2.089       .  S
C242        C256   1.465       .  S
C242        C998   1.487       .  S
C242        N246   1.351   1_565  A
C243        C262   1.465   1_545  S
C243        H247   1.080       .  S
N244        C255   1.344       .  A
N244       Co254   2.094       .  S
C248        C260   1.459   1_565  S
C248        C417   1.478       .  S
C248        N264   1.351       .  A
Co250      Cl261   2.453   1_545  S
N251        C262   1.352       .  A
C252        C393   1.483       .  S
Co254      Cl261   2.450       .  S
C262        C974   1.489       .  S
C265        C266   1.413       .  A
C265        C270   1.404       .  A
C265        C518   1.485       .  S
C266        C267   1.403       .  A
C266        C374   1.489       .  S
C267        C268   1.404       .  A
C267        H272   1.085   1_655  S
C268        C269   1.417       .  A
C268        C350   1.488   1_655  S
C269        C270   1.406       .  A
C269        C494   1.492       .  S
C270        H271   1.084       .  S
C273        C274   1.416       .  A
C273        C278   1.402       .  A
C273        C465   1.486       .  S
C274        C275   1.404       .  A
C274        C422   1.486       .  S
C275        C276   1.402       .  A
C275        H280   1.084       .  S
C276        C277   1.411       .  A
C276        C398   1.486       .  S
C277        C278   1.402       .  A
C277        C441   1.481       .  S
C278        H279   1.085       .  S
C281        C282   1.538   1_455  S
C281        C287   1.547       .  S
C281        C285   1.535       .  S
C281        C326   1.545       .  S
C282        H289   1.086       .  S
C282        C283   1.368       .  D
C283        C284   1.541   1_655  S
C283        C561   1.486       .  S
C284        C288   1.538       .  S
C284        C286   1.540       .  S
C284        H290   1.111       .  S
C285        H291   1.086       .  S
C285        C286   1.365       .  D
C286        C537   1.485       .  S
C287        H292   1.080       .  S
C287        C288   1.366       .  D
C288        C297   1.488       .  S
C293        C294   1.410       .  A
C293        C298   1.404       .  A
C293        C307   1.443       .  S
C294        C295   1.402   1_655  A
C294        C299   1.486       .  S
C295        C296   1.400       .  A
C295        H314   1.085       .  S
C296        C297   1.414       .  A
C296        C308   1.444       .  S
C297        C298   1.405   1_455  A
C298        H313   1.084       .  S
C299        C300   1.403       .  A
C299        C304   1.408   1_655  A
C300        C301   1.402       .  A
C300        H315   1.085       .  S
C301        C302   1.417       .  A
C301        C305   1.444       .  S
C302        C303   1.405   1_655  A
C303        C304   1.400       .  A
C303        H316   1.085       .  S
C304        C306   1.443       .  S
C305        N309   1.158       .  T
C306        N310   1.157       .  T
C307        N312   1.157       .  T
C308        N311   1.157       .  T
C317        C318   1.407   1_455  A
C317        C322   1.402       .  A
C317        C331   1.444       .  S
C318        C319   1.400       .  A
C318        C323   1.483   1_655  S
C319        C320   1.401       .  A
C319        H338   1.085       .  S
C320        C321   1.418       .  A
C320        C332   1.444       .  S
C321        C322   1.408   1_655  A
C322        H337   1.083       .  S
C323        C324   1.398   1_455  A
C323        C328   1.404       .  A
C324        C325   1.404       .  A
C324        H339   1.085       .  S
C325        C326   1.425   1_655  A
C325        C329   1.443       .  S
C326        C327   1.415       .  A
C327        C328   1.399       .  A
C327        H340   1.076       .  S
C328        C330   1.445       .  S
C329        N333   1.157       .  T
C330        N334   1.157       .  T
C331        N336   1.157       .  T
C332        N335   1.157       .  T
C341        C342   1.411   1_655  A
C341        C346   1.402       .  A
C341        C355   1.443       .  S
C342        C343   1.402       .  A
C342        C347   1.488       .  S
C343        C344   1.401       .  A
C343        H362   1.085       .  S
C344        C345   1.416       .  A
C344        C356   1.444       .  S
C345        C346   1.404   1_455  A
C346        H361   1.085       .  S
C347        C348   1.404       .  A
C347        C352   1.412   1_455  A
C348        C349   1.402       .  A
C348        H363   1.085       .  S
C349        C350   1.412       .  A
C349        C353   1.443       .  S
C350        C351   1.404   1_455  A
C351        C352   1.399       .  A
C351        H364   1.085       .  S
C352        C354   1.444       .  S
C353        N357   1.157       .  T
C354        N358   1.157       .  T
C355        N360   1.157       .  T
C356        N359   1.157       .  T
C365        C366   1.411       .  A
C365        C370   1.404       .  A
C365        C379   1.444       .  S
C366        C367   1.401   1_655  A
C366        C371   1.491       .  S
C367        C368   1.402       .  A
C367        H386   1.085       .  S
C368        C369   1.419   1_455  A
C368        C380   1.444       .  S
C369        C370   1.407       .  A
C370        H385   1.084       .  S
C371        C372   1.404       .  A
C371        C376   1.412   1_655  A
C372        C373   1.401       .  A
C372        H387   1.084       .  S
C373        C374   1.412       .  A
C373        C377   1.444       .  S
C374        C375   1.405   1_655  A
C375        C376   1.403       .  A
C375        H388   1.084       .  S
C376        C378   1.443       .  S
C377        N381   1.157       .  T
C378        N382   1.157       .  T
C379        N384   1.157       .  T
C380        N383   1.157       .  T
C389        C390   1.409       .  A
C389        C394   1.400       .  A
C389        C403   1.444       .  S
C390        C391   1.401   1_565  A
C390        C395   1.483       .  S
C391        C392   1.399       .  A
C391        H410   1.085       .  S
C392        C393   1.417   1_545  A
C392        C404   1.445       .  S
C393        C394   1.405       .  A
C394        H409   1.084       .  S
C395        C396   1.401       .  A
C395        C400   1.410   1_565  A
C396        C397   1.396       .  A
C396        H411   1.084       .  S
C397        C398   1.410       .  A
C397        C401   1.441       .  S
C398        C399   1.406   1_565  A
C399        C400   1.402       .  A
C399        H412   1.084       .  S
C400        C402   1.443       .  S
C401        N405   1.156       .  T
C402        N406   1.157       .  T
C403        N408   1.157       .  T
C404        N407   1.158       .  T
C413        C414   1.409       .  A
C413        C418   1.400       .  A
C413        C427   1.444       .  S
C414        C415   1.403   1_545  A
C414        C419   1.481   1_545  S
C415        C416   1.400       .  A
C415        H434   1.085       .  S
C416        C417   1.411       .  A
C416        C428   1.444       .  S
C417        C418   1.405   1_565  A
C418        H433   1.084       .  S
C419        C420   1.398       .  A
C419        C424   1.411   1_565  A
C420        C421   1.395       .  A
C420        H435   1.085       .  S
C421        C422   1.413       .  A
C421        C425   1.441       .  S
C422        C423   1.406   1_565  A
C423        C424   1.403       .  A
C423        H436   1.085       .  S
C424        C426   1.443       .  S
C425        N429   1.156       .  T
C426        N430   1.157       .  T
C427        N432   1.157       .  T
C428        N431   1.157       .  T
C437        C438   1.409       .  A
C437        C442   1.398       .  A
C437        C451   1.444       .  S
C438        C439   1.402   1_565  A
C438        C443   1.479       .  S
C439        C440   1.397       .  A
C439        H458   1.085       .  S
C440        C441   1.411   1_545  A
C440        C452   1.444       .  S
C441        C442   1.404       .  A
C442        H457   1.085       .  S
C443        C444   1.400       .  A
C443        C448   1.409   1_565  A
C444        C445   1.397       .  A
C444        H459   1.085       .  S
C445        C446   1.415       .  A
C445        C449   1.444       .  S
C446        C447   1.404   1_565  A
C447        C448   1.400       .  A
C447        H460   1.080       .  S
C448        C450   1.444       .  S
C449        N453   1.157       .  T
C450        N454   1.157       .  T
C451        N456   1.157       .  T
C452        N455   1.157       .  T
C461        C462   1.411   1_545  A
C461        C466   1.401       .  A
C461        C475   1.444       .  S
C462        C463   1.402       .  A
C462        C467   1.485       .  S
C463        C464   1.400       .  A
C463        H482   1.085       .  S
C464        C465   1.412       .  A
C464        C476   1.442       .  S
C465        C466   1.404   1_565  A
C466        H481   1.085       .  S
C467        C468   1.400       .  A
C467        C472   1.411   1_565  A
C468        C469   1.398       .  A
C468        H483   1.085       .  S
C469        C470   1.416       .  A
C469        C473   1.444       .  S
C470        C471   1.405   1_565  A
C471        C472   1.403       .  A
C471        H484   1.085       .  S
C472        C474   1.444       .  S
C473        N477   1.158       .  T
C474        N478   1.157       .  T
C475        N480   1.157       .  T
C476        N479   1.157       .  T
C485        C486   1.411       .  A
C485        C490   1.399       .  A
C485        C499   1.444       .  S
C486        C487   1.401   1_655  A
C486        C491   1.486       .  S
C487        C488   1.401       .  A
C487        H506   1.085       .  S
C488        C489   1.417   1_455  A
C488        C500   1.441       .  S
C489        C490   1.405       .  A
C490        H505   1.083       .  S
C491        C492   1.403   1_655  A
C491        C496   1.410       .  A
C492        C493   1.401       .  A
C492        H507   1.085       .  S
C493        C494   1.415   1_455  A
C493        C497   1.445       .  S
C494        C495   1.405       .  A
C495        C496   1.399       .  A
C495        H508   1.083       .  S
C496        C498   1.444       .  S
C497        N501   1.157       .  T
C498        N502   1.157       .  T
C499        N504   1.157       .  T
C500        N503   1.156       .  T
C509        C510   1.411       .  A
C509        C514   1.401       .  A
C509        C523   1.444       .  S
C510        C511   1.403   1_655  A
C510        C515   1.487       .  S
C511        C512   1.400       .  A
C511        H530   1.085       .  S
C512        C513   1.413   1_455  A
C512        C524   1.443       .  S
C513        C514   1.406       .  A
C514        H529   1.085       .  S
C515        C516   1.403       .  A
C515        C520   1.412   1_655  A
C516        C517   1.402       .  A
C516        H531   1.085       .  S
C517        C518   1.413       .  A
C517        C521   1.442       .  S
C518        C519   1.402   1_655  A
C519        C520   1.399       .  A
C519        H532   1.085       .  S
C520        C522   1.444       .  S
C521        N525   1.157       .  T
C522        N526   1.157       .  T
C523        N528   1.157       .  T
C524        N527   1.157       .  T
C533        C534   1.414       .  A
C533        C538   1.405       .  A
C533        C547   1.443       .  S
C534        C535   1.404       .  A
C534        C539   1.492       .  S
C535        C536   1.402       .  A
C535        H554   1.084       .  S
C536        C537   1.410       .  A
C536        C548   1.443       .  S
C537        C538   1.403       .  A
C538        H553   1.084       .  S
C539        C540   1.403       .  A
C539        C544   1.409       .  A
C540        C541   1.404       .  A
C540        H555   1.086       .  S
C541        C542   1.420       .  A
C541        C545   1.444       .  S
C542        C543   1.408       .  A
C543        C544   1.402       .  A
C543        H556   1.085       .  S
C544        C546   1.443       .  S
C545        N549   1.158       .  T
C546        N550   1.157       .  T
C547        N552   1.157       .  T
C548        N551   1.157       .  T
C557        C558   1.411       .  A
C557        C562   1.403       .  A
C557        C571   1.443       .  S
C558        C559   1.402       .  A
C558        C563   1.486       .  S
C559        C560   1.402       .  A
C559        H578   1.084       .  S
C560        C561   1.414       .  A
C560        C572   1.444       .  S
C561        C562   1.403       .  A
C562        H577   1.084       .  S
C563        C564   1.400       .  A
C563        C568   1.407       .  A
C564        C565   1.402       .  A
C564        H579   1.085       .  S
C565        C566   1.418       .  A
C565        C569   1.443       .  S
C566        C567   1.411       .  A
C567        C568   1.404       .  A
C567        H580   1.080       .  S
C568        C570   1.444       .  S
C569        N573   1.157       .  T
C570        N574   1.157       .  T
C571        N576   1.157       .  T
C572        N575   1.157       .  T
C581        C582   1.412       .  A
C581        C586   1.400       .  A
C581        C595   1.443       .  S
C582        C583   1.402       .  A
C582        C587   1.484       .  S
C583        C584   1.398       .  A
C583        H602   1.085       .  S
C584        C585   1.412       .  A
C584        C596   1.445       .  S
C585        C586   1.404       .  A
C586        H601   1.084       .  S
C587        C588   1.402       .  A
C587        C592   1.410       .  A
C588        C589   1.400       .  A
C588        H603   1.085       .  S
C589        C590   1.412       .  A
C589        C593   1.443       .  S
C590        C591   1.407       .  A
C591        C592   1.401       .  A
C591        H604   1.084       .  S
C592        C594   1.445       .  S
C593        N597   1.157       .  T
C594        N598   1.157       .  T
C595        N600   1.157       .  T
C596        N599   1.157       .  T
C605        C606   1.412       .  A
C605        C610   1.403       .  A
C605        C619   1.444       .  S
C606        C607   1.405       .  A
C606        C611   1.493       .  S
C607        C608   1.407       .  A
C607        H626   1.085       .  S
C608        C609   1.413       .  A
C608        C620   1.444       .  S
C609        C610   1.404       .  A
C610        H625   1.085       .  S
C611        C612   1.404       .  A
C611        C616   1.413       .  A
C612        C613   1.403       .  A
C612        H627   1.084       .  S
C613        C614   1.411       .  A
C613        C617   1.443       .  S
C614        C615   1.405       .  A
C615        C616   1.405       .  A
C615        H628   1.084       .  S
C616        C618   1.443       .  S
C617        N621   1.157       .  T
C618        N622   1.157       .  T
C619        N624   1.157       .  T
C620        N623   1.157       .  T
C629        C630   1.414       .  A
C629        C634   1.402       .  A
C629        C643   1.444       .  S
C630        C631   1.405       .  A
C630        C635   1.493       .  S
C631        C632   1.404       .  A
C631        H650   1.085       .  S
C632        C633   1.412       .  A
C632        C644   1.443       .  S
C633        C634   1.404       .  A
C634        H649   1.085       .  S
C635        C636   1.404       .  A
C635        C640   1.413       .  A
C636        C637   1.402       .  A
C636        H651   1.085       .  S
C637        C638   1.416       .  A
C637        C641   1.444       .  S
C638        C639   1.405       .  A
C639        C640   1.403       .  A
C639        H652   1.085       .  S
C640        C642   1.444       .  S
C641        N645   1.157       .  T
C642        N646   1.157       .  T
C643        N648   1.157       .  T
C644        N647   1.157       .  T
C653        C654   1.411       .  A
C653        C658   1.398       .  A
C653        C667   1.444       .  S
C654        C655   1.403       .  A
C654        C659   1.480       .  S
C655        C656   1.398       .  A
C655        H674   1.085       .  S
C656        C657   1.410       .  A
C656        C668   1.444       .  S
C657        C658   1.403       .  A
C658        H673   1.084       .  S
C659        C660   1.403       .  A
C659        C664   1.410       .  A
C660        C661   1.400       .  A
C660        H675   1.085       .  S
C661        C662   1.413       .  A
C661        C665   1.444       .  S
C662        C663   1.404       .  A
C663        C664   1.396       .  A
C663        H676   1.085       .  S
C664        C666   1.444       .  S
C665        N669   1.158       .  T
C666        N670   1.157       .  T
C667        N672   1.157       .  T
C668        N671   1.157       .  T
C677        C678   1.409       .  A
C677        C682   1.400       .  A
C677        C691   1.444       .  S
C678        C679   1.401   1_455  A
C678        C683   1.482       .  S
C679        C680   1.401       .  A
C679        H698   1.085       .  S
C680        C681   1.414       .  A
C680        C692   1.442       .  S
C681        C682   1.406   1_655  A
C682        H697   1.085       .  S
C683        C684   1.398   1_455  A
C683        C688   1.406       .  A
C684        C685   1.399       .  A
C684        H699   1.085       .  S
C685        C686   1.423   1_655  A
C685        C689   1.445       .  S
C686        C687   1.415       .  A
C687        C688   1.401       .  A
C687        H700   1.075       .  S
C688        C690   1.445       .  S
C689        N693   1.157       .  T
C690        N694   1.157       .  T
C691        N696   1.157       .  T
C692        N695   1.157       .  T
C701        C702   1.408       .  A
C701        C706   1.399       .  A
C701        C715   1.444       .  S
C702        C703   1.402   1_455  A
C702        C707   1.484       .  S
C703        C704   1.402       .  A
C703        H722   1.084       .  S
C704        C705   1.415   1_655  A
C704        C716   1.444       .  S
C705        C706   1.408       .  A
C706        H721   1.082       .  S
C707        C708   1.402       .  A
C707        C712   1.407   1_455  A
C708        C709   1.404       .  A
C708        H723   1.085       .  S
C709        C710   1.417       .  A
C709        C713   1.442       .  S
C710        C711   1.407   1_455  A
C711        C712   1.397       .  A
C711        H724   1.085       .  S
C712        C714   1.444       .  S
C713        N717   1.157       .  T
C714        N718   1.157       .  T
C715        N720   1.157       .  T
C716        N719   1.157       .  T
C725        C726   1.406       .  A
C725        C730   1.399       .  A
C725        C739   1.444       .  S
C726        C727   1.400       .  A
C726        C731   1.476       .  S
C727        C728   1.395       .  A
C727        H746   1.086       .  S
C728        C729   1.414       .  A
C728        C740   1.444       .  S
C729        C730   1.408       .  A
C730        H745   1.085       .  S
C731        C732   1.399       .  A
C731        C736   1.412       .  A
C732        C733   1.393       .  A
C732        H747   1.085       .  S
C733        C734   1.412       .  A
C733        C737   1.444       .  S
C734        C735   1.401       .  A
C735        C736   1.402       .  A
C735        H748   1.085       .  S
C736        C738   1.444       .  S
C737        N741   1.157       .  T
C738        N742   1.157       .  T
C739        N744   1.157       .  T
C740        N743   1.157       .  T
C749        C750   1.411       .  A
C749        C754   1.402       .  A
C749        C763   1.444       .  S
C750        C751   1.404       .  A
C750        C755   1.488       .  S
C751        C752   1.404       .  A
C751        H770   1.084       .  S
C752        C753   1.411       .  A
C752        C764   1.443       .  S
C753        C754   1.405       .  A
C754        H769   1.085       .  S
C755        C756   1.402       .  A
C755        C760   1.411       .  A
C756        C757   1.403       .  A
C756        H771   1.084       .  S
C757        C758   1.416       .  A
C757        C761   1.444       .  S
C758        C759   1.404       .  A
C759        C760   1.403       .  A
C759        H772   1.084       .  S
C760        C762   1.444       .  S
C761        N765   1.157       .  T
C762        N766   1.157       .  T
C763        N768   1.157       .  T
C764        N767   1.157       .  T
C773        C774   1.411       .  A
C773        C778   1.403       .  A
C773        C787   1.443       .  S
C774        C775   1.401   1_565  A
C774        C779   1.487       .  S
C775        C776   1.400       .  A
C775        H794   1.085       .  S
C776        C777   1.418       .  A
C776        C788   1.445       .  S
C777        C778   1.404   1_545  A
C778        H793   1.084       .  S
C779        C780   1.400   1_565  A
C779        C784   1.409       .  A
C780        C781   1.401       .  A
C780        H795   1.085       .  S
C781        C782   1.419   1_545  A
C781        C785   1.443       .  S
C782        C783   1.410       .  A
C783        C784   1.404       .  A
C783        H796   1.082       .  S
C784        C786   1.444       .  S
C785        N789   1.157       .  T
C786        N790   1.157       .  T
C787        N792   1.157       .  T
C788        N791   1.157       .  T
C797        C798   1.410   1_545  A
C797        C802   1.401       .  A
C797        C811   1.444       .  S
C798        C799   1.402       .  A
C798        C803   1.491       .  S
C799        C800   1.405       .  A
C799        H818   1.085       .  S
C800        C801   1.418       .  A
C800        C812   1.443       .  S
C801        C802   1.408   1_565  A
C802        H817   1.082       .  S
C803        C804   1.403       .  A
C803        C808   1.414   1_565  A
C804        C805   1.402       .  A
C804        H819   1.084       .  S
C805        C806   1.410       .  A
C805        C809   1.444       .  S
C806        C807   1.402   1_565  A
C807        C808   1.405       .  A
C807        H820   1.085       .  S
C808        C810   1.444       .  S
C809        N813   1.157       .  T
C810        N814   1.157       .  T
C811        N816   1.157       .  T
C812        N815   1.157       .  T
C821        C822   1.404       .  A
C821        C826   1.398       .  A
C821        C835   1.446       .  S
C822        C823   1.396       .  A
C822        C827   1.477       .  S
C823        C824   1.400       .  A
C823        H842   1.085       .  S
C824        C825   1.424       .  A
C824        C836   1.445       .  S
C825        C826   1.414       .  A
C826        H841   1.075       .  S
C827        C828   1.399       .  A
C827        C832   1.404       .  A
C828        C829   1.402       .  A
C828        H843   1.086       .  S
C829        C830   1.420       .  A
C829        C833   1.442       .  S
C830        C831   1.409       .  A
C831        C832   1.396       .  A
C831        H844   1.084       .  S
C832        C834   1.444       .  S
C833        N837   1.158       .  T
C834        N838   1.157       .  T
C835        N840   1.157       .  T
C836        N839   1.157       .  T
C845        C846   1.412       .  A
C845        C850   1.402       .  A
C845        C859   1.443       .  S
C846        C847   1.400       .  A
C846        C851   1.483       .  S
C847        C848   1.396       .  A
C847        H866   1.085       .  S
C848        C849   1.415       .  A
C848        C860   1.445       .  S
C849        C850   1.403       .  A
C850        H865   1.084       .  S
C851        C852   1.402       .  A
C851        C856   1.410       .  A
C852        C853   1.401       .  A
C852        H867   1.085       .  S
C853        C854   1.416       .  A
C853        C857   1.444       .  S
C854        C855   1.407       .  A
C855        C856   1.397       .  A
C855        H868   1.082       .  S
C856        C858   1.445       .  S
C857        N861   1.157       .  T
C858        N862   1.157       .  T
C859        N864   1.157       .  T
C860        N863   1.157       .  T
C869        C870   1.412       .  A
C869        C874   1.400       .  A
C869        C883   1.444       .  S
C870        C871   1.402       .  A
C870        C875   1.485       .  S
C871        C872   1.398       .  A
C871        H890   1.085       .  S
C872        C873   1.412       .  A
C872        C884   1.445       .  S
C873        C874   1.404       .  A
C874        H889   1.084       .  S
C875        C876   1.403       .  A
C875        C880   1.411       .  A
C876        C877   1.401       .  A
C876        H891   1.085       .  S
C877        C878   1.413       .  A
C877        C881   1.444       .  S
C878        C879   1.405       .  A
C879        C880   1.399       .  A
C879        H892   1.084       .  S
C880        C882   1.445       .  S
C881        N885   1.157       .  T
C882        N886   1.157       .  T
C883        N888   1.157       .  T
C884        N887   1.157       .  T
C893        C894   1.411       .  A
C893        C898   1.396       .  A
C893        C907   1.444       .  S
C894        C895   1.405       .  A
C894        C899   1.484       .  S
C895        C896   1.401       .  A
C895        H914   1.085       .  S
C896        C897   1.412       .  A
C896        C908   1.445       .  S
C897        C898   1.402       .  A
C898        H913   1.084       .  S
C899        C900   1.403       .  A
C899        C904   1.412       .  A
C900        C901   1.399       .  A
C900        H915   1.085       .  S
C901        C902   1.412       .  A
C901        C905   1.444       .  S
C902        C903   1.404       .  A
C903        C904   1.399       .  A
C903        H916   1.084       .  S
C904        C906   1.444       .  S
C905        N909   1.157       .  T
C906        N910   1.157       .  T
C907        N912   1.157       .  T
C908        N911   1.158       .  T
C917        C918   1.412       .  A
C917        C922   1.397       .  A
C917        C931   1.444       .  S
C918        C919   1.404       .  A
C918        C923   1.482       .  S
C919        C920   1.400       .  A
C919        H938   1.085       .  S
C920        C921   1.409       .  A
C920        C932   1.443       .  S
C921        C922   1.401       .  A
C922        H937   1.085       .  S
C923        C924   1.401       .  A
C923        C928   1.411       .  A
C924        C925   1.398       .  A
C924        H939   1.085       .  S
C925        C926   1.413       .  A
C925        C929   1.445       .  S
C926        C927   1.403       .  A
C927        C928   1.401       .  A
C927        H940   1.085       .  S
C928        C930   1.444       .  S
C929        N933   1.157       .  T
C930        N934   1.157       .  T
C931        N936   1.157       .  T
C932        N935   1.157       .  T
C941        C942   1.411       .  A
C941        C946   1.399       .  A
C941        C955   1.444       .  S
C942        C943   1.401       .  A
C942        C947   1.479       .  S
C943        C944   1.396       .  A
C943        H962   1.085       .  S
C944        C945   1.410       .  A
C944        C956   1.443       .  S
C945        C946   1.403       .  A
C946        H961   1.085       .  S
C947        C948   1.401       .  A
C947        C952   1.410       .  A
C948        C949   1.395       .  A
C948        H963   1.086       .  S
C949        C950   1.412       .  A
C949        C953   1.445       .  S
C950        C951   1.403       .  A
C951        C952   1.400       .  A
C951        H964   1.085       .  S
C952        C954   1.444       .  S
C953        N957   1.157       .  T
C954        N958   1.157       .  T
C955        N960   1.157       .  T
C956        N959   1.157       .  T
C965        C966   1.415       .  A
C965        C970   1.399       .  A
C965        C979   1.445       .  S
C966        C967   1.407       .  A
C966        C971   1.497       .  S
C967        C968   1.405       .  A
C967        H986   1.084       .  S
C968        C969   1.412       .  A
C968        C980   1.442       .  S
C969        C970   1.404       .  A
C970        H985   1.085   1_565  S
C971        C972   1.405   1_565  A
C971        C976   1.414       .  A
C972        C973   1.399       .  A
C972        H987   1.084       .  S
C973        C974   1.414   1_545  A
C973        C977   1.443       .  S
C974        C975   1.407       .  A
C975        C976   1.404       .  A
C975        H988   1.084       .  S
C976        C978   1.444       .  S
C977        N981   1.157       .  T
C978        N982   1.157       .  T
C979        N984   1.157       .  T
C980        N983   1.157       .  T
C989        C990   1.410       .  A
C989        C994   1.402       .  A
C989       C1003   1.444       .  S
C990        C991   1.402   1_565  A
C990        C995   1.483       .  S
C991        C992   1.398       .  A
C991       H1010   1.084       .  S
C992        C993   1.411   1_545  A
C992       C1004   1.444       .  S
C993        C994   1.402       .  A
C994       H1009   1.086       .  S
C995        C996   1.400       .  A
C995       C1000   1.409   1_565  A
C996        C997   1.401       .  A
C996       H1011   1.086       .  S
C997        C998   1.418       .  A
C997       C1001   1.442       .  S
C998        C999   1.406   1_565  A
C999       C1000   1.401       .  A
C999       H1012   1.086       .  S
C1000      C1002   1.444       .  S
C1001      N1005   1.157       .  T
C1002      N1006   1.157       .  T
C1003      N1008   1.157       .  T
C1004      N1007   1.157       .  T
C1013      C1014   1.409       .  A
C1013      C1018   1.398       .  A
C1013      C1027   1.444       .  S
C1014      C1015   1.402       .  A
C1014      C1019   1.481       .  S
C1015      C1016   1.403       .  A
C1015      H1034   1.085       .  S
C1016      C1017   1.412       .  A
C1016      C1028   1.443       .  S
C1017      C1018   1.404       .  A
C1018      H1033   1.085       .  S
C1019      C1020   1.398       .  A
C1019      C1024   1.404       .  A
C1020      C1021   1.402       .  A
C1020      H1035   1.085       .  S
C1021      C1022   1.423       .  A
C1021      C1025   1.445       .  S
C1022      C1023   1.416       .  A
C1023      C1024   1.399       .  A
C1023      H1036   1.074       .  S
C1024      C1026   1.445       .  S
C1025      N1029   1.157       .  T
C1026      N1030   1.157       .  T
C1027      N1032   1.157       .  T
C1028      N1031   1.157       .  T
C1037      C1038   1.405       .  A
C1037      C1042   1.399       .  A
C1037      C1051   1.444       .  S
C1038      C1039   1.398       .  A
C1038      C1043   1.483       .  S
C1039      C1040   1.403       .  A
C1039      H1058   1.085       .  S
C1040      C1041   1.424       .  A
C1040      C1052   1.440       .  S
C1041      C1042   1.413       .  A
C1042      H1057   1.084       .  S
C1043      C1044   1.401       .  A
C1043      C1048   1.408       .  A
C1044      C1045   1.402       .  A
C1044      H1059   1.085       .  S
C1045      C1046   1.417       .  A
C1045      C1049   1.443       .  S
C1046      C1047   1.407       .  A
C1047      C1048   1.401       .  A
C1047      H1060   1.083       .  S
C1048      C1050   1.444       .  S
C1049      N1053   1.157       .  T
C1050      N1054   1.157       .  T
C1051      N1056   1.157       .  T
C1052      N1055   1.158       .  T
