geometry optimzed in LAMMPS
_audit_creation_date              2020-12-01 
_audit_creation_method            'lammps2cif' 
_symmetry_space_group_name_H-M    'P1' 
_symmetry_Int_Tables_number       1 
_symmetry_cell_setting            triclinic 
loop_ 
_symmetry_equiv_pos_as_xyz 
  x,y,z 
_cell_length_a                    68.33045063 
_cell_length_b                    68.27618134803295 
_cell_length_c                    68.18594981515665 
_cell_angle_alpha                 89.95152597575304 
_cell_angle_beta                  89.96805049833661 
_cell_angle_gamma                 90.002557776969 
loop_ 
_atom_site_label 
_atom_site_type_symbol 
_atom_site_fract_x 
_atom_site_fract_y 
_atom_site_fract_z 
_atom_site_charge 
C1          C  0.68171940  0.69425869  0.83971067     0.80600
N2          N  0.68948505  0.67699165  0.83367030    -0.77700
C3          C  0.68105155  0.66675479  0.81887105     0.83100
N4          N  0.66503301  0.67416060  0.80977797    -0.77600
C5          C  0.65716716  0.69149555  0.81553321     0.83200
N6          N  0.66547634  0.70135242  0.83071241    -0.79300
C7          C  0.67624557  0.88321127  0.63739351     0.80600
N8          N  0.66043249  0.87471385  0.64589636    -0.77700
C9          C  0.65193304  0.85877998  0.63763673     0.83100
N10         N  0.65953125  0.85129102  0.62084573    -0.77600
C11         C  0.67550988  0.85949642  0.61226921     0.83200
N12         N  0.68373365  0.87550331  0.62067702    -0.79300
C13         C  0.87147447  0.68738646  0.63879774     0.80600
N14         N  0.86550064  0.66997265  0.64619030    -0.77700
C15         C  0.84887690  0.66134795  0.63964219     0.83100
N16         N  0.83820868  0.67044759  0.62550307    -0.77600
C17         C  0.84396180  0.68797277  0.61798375     0.83200
N18         N  0.86066831  0.69644874  0.62475325    -0.79300
C19         C  0.86555274  0.85951687  0.85079840     0.80600
N20         N  0.88095636  0.85031726  0.84216333    -0.77700
C21         C  0.88871699  0.85738933  0.82518630     0.83100
N22         N  0.88056228  0.87339340  0.81656361    -0.77600
C23         C  0.86487764  0.88234549  0.82486754     0.83200
N24         N  0.85758479  0.87535234  0.84193148    -0.79300
O25         O  0.74366659  0.77407807  0.96125889    -0.72500
O26         O  0.77327266  0.79594017  0.00679093    -0.73500
O27         O  0.77429617  0.80146950  0.96586039    -0.62100
O28         O  0.74252387  0.76827606  0.00228156    -0.70500
O29         O  0.76445056  0.74457673  0.99978408    -0.70100
O30         O  0.79627238  0.77759435  0.96383524    -0.61400
O31         O  0.79511215  0.77202664  0.00462413    -0.73900
O32         O  0.76551543  0.75011786  0.95901024    -0.72600
Cu33       Cu  0.75766180  0.78577824  0.98418576     1.04600
Cu34       Cu  0.78108274  0.76024593  0.98172572     1.04300
C35         C  0.74986634  0.75846414  0.95306532     0.93700
C36         C  0.78901461  0.78773998  0.01270911     0.92800
C37         C  0.79042779  0.79474203  0.95922953     0.84900
C38         C  0.74834997  0.75102612  0.00667346     0.91200
O39         O  0.03627395  0.76534619  0.75300351    -0.72500
O40         O  0.99530362  0.73781302  0.72137644    -0.73500
O41         O  0.03712149  0.73779498  0.72219632    -0.62100
O42         O  0.99495670  0.76569177  0.75230912    -0.70500
O43         O  0.99536372  0.78968858  0.73041224    -0.70100
O44         O  0.03746764  0.76196631  0.70046156    -0.61400
O45         O  0.99593929  0.76183231  0.69949066    -0.73900
O46         O  0.03682594  0.78953813  0.73134341    -0.72600
Cu47       Cu  0.01586088  0.75077363  0.73793063     1.04600
Cu48       Cu  0.01638563  0.77655817  0.71464161     1.04300
C49         C  0.04299646  0.78183294  0.74728052     0.93700
C50         C  0.98905002  0.74548158  0.70546282     0.92800
C51         C  0.04431058  0.74575811  0.70682173     0.84900
C52         C  0.98865348  0.78225655  0.74624325     0.91200
O53         O  0.77055245  0.99131933  0.70266437    -0.72500
O54         O  0.79873563  0.03396929  0.73120972    -0.73500
O55         O  0.80002150  0.99256921  0.73189186    -0.62100
O56         O  0.76943193  0.03266273  0.70204472    -0.70500
O57         O  0.74630935  0.03238267  0.72485873    -0.70100
O58         O  0.77725209  0.99252655  0.75504755    -0.61400
O59         O  0.77564836  0.03384138  0.75404639    -0.73900
O60         O  0.74773952  0.99112809  0.72579722    -0.72600
Cu61       Cu  0.78548657  0.01259823  0.71615506     1.04600
Cu62       Cu  0.76095449  0.01240648  0.74075727     1.04300
C63         C  0.75452121  0.98464943  0.70960097     0.93700
C64         C  0.79149427  0.04085340  0.74704854     0.92800
C65         C  0.79355541  0.98627498  0.74829742     0.84900
C66         C  0.75316565  0.03901925  0.70872725     0.91200
C67         C  0.67383337  0.67331273  0.10653881     0.80600
N68         N  0.68244775  0.65742183  0.11475167    -0.77700
C69         C  0.67453166  0.64889817  0.13092006     0.83100
N70         N  0.65802452  0.65670784  0.13892458    -0.77600
C71         C  0.64927284  0.67253754  0.13060663     0.83200
N72         N  0.65746341  0.68094788  0.11461817    -0.79300
C73         C  0.68608064  0.15554015  0.64861312     0.80600
N74         N  0.69454821  0.16339498  0.63238679    -0.77700
C75         C  0.68858596  0.18101677  0.62543254     0.83100
N76         N  0.67387886  0.19074056  0.63457151    -0.77600
C77         C  0.66502306  0.18300284  0.65063772     0.83200
N78         N  0.67124612  0.16536589  0.65752920    -0.79300
C79         C  0.16378400  0.69170145  0.63883108     0.80600
N80         N  0.17260372  0.70081082  0.62347780    -0.77700
C81         C  0.18894350  0.69317653  0.61508586     0.83100
N82         N  0.19657049  0.67633221  0.62242702    -0.77600
C83         C  0.18795256  0.66707197  0.63776978     0.83200
N84         N  0.17145084  0.67470700  0.64578242    -0.79300
C85         C  0.88013489  0.67500515  0.32009037     0.80600
N86         N  0.87219365  0.65926592  0.31096259    -0.77700
C87         C  0.85474286  0.65184668  0.31680096     0.83100
N88         N  0.84510700  0.66037660  0.33196844    -0.77600
C89         C  0.85271520  0.67630456  0.34112051     0.83200
N90         N  0.87024630  0.68354497  0.33511802    -0.79300
O91         O  0.04051769  0.78977162  0.23347428    -0.72500
O92         O  0.99862262  0.76015841  0.26178995    -0.73500
O93         O  0.03975953  0.76108493  0.26330395    -0.62100
O94         O  0.99900729  0.78909493  0.23187986    -0.70500
O95         O  0.00090400  0.76629633  0.20874744    -0.70100
O96         O  0.04010760  0.73731817  0.24110977    -0.61400
O97         O  0.99900662  0.73741149  0.23852738    -0.73900
O98         O  0.04196273  0.76606618  0.21127741    -0.72600
Cu99       Cu  0.01940314  0.77587857  0.24839361     1.04600
Cu100      Cu  0.02053679  0.75096470  0.22412651     1.04300
C101        C  0.04803312  0.78242571  0.21798237     0.93700
C102        C  0.99232870  0.74404032  0.25469515     0.92800
C103        C  0.04610547  0.74456406  0.25729142     0.84900
C104        C  0.99376275  0.78230634  0.21523585     0.91200
C105        C  0.86304552  0.85624256  0.12034930     0.80600
N106        N  0.87968199  0.84795762  0.12731158    -0.77700
C107        C  0.88919240  0.85589035  0.14284598     0.83100
N108        N  0.88177164  0.87212284  0.15161829    -0.77600
C109        C  0.86507698  0.88053846  0.14485610     0.83200
N110        N  0.85588208  0.87254923  0.12914074    -0.79300
C111        C  0.67672495  0.89567799  0.31979910     0.80600
N112        N  0.66160671  0.88778704  0.30951086    -0.77700
C113        C  0.65312991  0.87085598  0.31557677     0.83100
N114        N  0.65980610  0.86175463  0.33193355    -0.77600
C115        C  0.67473415  0.86957314  0.34237404     0.83200
N116        N  0.68329944  0.88632879  0.33605176    -0.79300
O117        O  0.77704344  0.04392313  0.25472331    -0.72500
O118        O  0.80439957  0.00022944  0.22713711    -0.73500
O119        O  0.80529698  0.04144798  0.22384471    -0.62100
O120        O  0.77604886  0.00270369  0.25759120    -0.70500
O121        O  0.75221576  0.00249915  0.23549746    -0.70100
O122        O  0.78122574  0.04054434  0.20197779    -0.61400
O123        O  0.78036854  0.99902716  0.20526326    -0.73900
O124        O  0.75335406  0.04342911  0.23247612    -0.72600
Cu125      Cu  0.79158297  0.02213077  0.24157481     1.04600
Cu126      Cu  0.76601855  0.02132112  0.21799783     1.04300
C127        C  0.76074287  0.05036475  0.24820579     0.93700
C128        C  0.79661714  0.99259554  0.21195604     0.92800
C129        C  0.79779214  0.04706101  0.20760052     0.84900
C130        C  0.75916955  0.99691831  0.25194097     0.91200
C131        C  0.35107679  0.89011727  0.64948284     0.80600
N132        N  0.34346673  0.88265492  0.63259315    -0.77700
C133        C  0.35158377  0.86669154  0.62387764     0.83100
N134        N  0.36756091  0.85824611  0.63210462    -0.77600
C135        C  0.37517970  0.86530465  0.64901278     0.83200
N136        N  0.36690891  0.88120739  0.65762170    -0.79300
O137        O  0.26064363  0.04323018  0.71565202    -0.72500
O138        O  0.22846829  0.00089445  0.74207521    -0.73500
O139        O  0.22978900  0.04279461  0.74359517    -0.62100
O140        O  0.25914828  0.00163049  0.71375996    -0.70500
O141        O  0.28170779  0.00077505  0.73716451    -0.70100
O142        O  0.25128208  0.04045515  0.76785538    -0.61400
O143        O  0.25106229  0.99911382  0.76523696    -0.73900
O144        O  0.28192906  0.04183597  0.74007947    -0.72600
Cu145      Cu  0.24368495  0.02218707  0.72792946     1.04600
Cu146      Cu  0.26717746  0.02046208  0.75341756     1.04300
C147        C  0.27652098  0.04909914  0.72372160     0.93700
C148        C  0.23490196  0.99321925  0.75796054     0.92800
C149        C  0.23596847  0.04819415  0.76042165     0.84900
C150        C  0.27524144  0.99499284  0.72057903     0.91200
C151        C  0.17698331  0.84820213  0.84457081     0.80600
N152        N  0.18417453  0.86515771  0.83694661    -0.77700
C153        C  0.17470254  0.87436990  0.82203226     0.83100
N154        N  0.15802126  0.86652093  0.81471088    -0.77600
C155        C  0.15080429  0.84951061  0.82201669     0.83200
N156        N  0.16045160  0.84032360  0.83680604    -0.79300
C157        C  0.36148641  0.67412381  0.84439096     0.80600
N158        N  0.35367645  0.65769780  0.83645550    -0.77700
C159        C  0.36110298  0.65008786  0.81961629     0.83100
N160        N  0.37639054  0.65925075  0.81069153    -0.77600
C161        C  0.38430209  0.67578527  0.81849957     0.83200
N162        N  0.37666460  0.68312685  0.83532473    -0.79300
O163        O  0.24175140  0.76184776  0.00135226    -0.72500
O164        O  0.27356854  0.73303340  0.96139008    -0.73500
O165        O  0.27260912  0.73420624  0.00281693    -0.62100
O166        O  0.24270966  0.76090291  0.95963699    -0.70500
O167        O  0.26494080  0.78454120  0.95910944    -0.70100
O168        O  0.29405446  0.75852732  0.00268919    -0.61400
O169        O  0.29563012  0.75671943  0.96132891    -0.73900
O170        O  0.26323524  0.78618400  0.00062397    -0.72600
Cu171      Cu  0.25688528  0.74666756  0.98128537     1.04600
Cu172      Cu  0.28019333  0.77234133  0.98092971     1.04300
C173        C  0.24748243  0.77861271  0.00733710     0.93700
C174        C  0.28971777  0.74007050  0.95512779     0.92800
C175        C  0.28805298  0.74225108  0.00967038     0.84900
C176        C  0.24929170  0.77687427  0.95237066     0.91200
C177        C  0.87948850  0.36348067  0.64542781     0.80600
N178        N  0.87143243  0.35493046  0.62932452    -0.77700
C179        C  0.85473341  0.36211139  0.62122446     0.83100
N180        N  0.84604654  0.37797928  0.62945130    -0.77600
C181        C  0.85403379  0.38673130  0.64538846     0.83200
N182        N  0.87066412  0.37941328  0.65339828    -0.79300
O183        O  0.99564118  0.27274265  0.75795016    -0.72500
O184        O  0.03893313  0.30285926  0.73145751    -0.73500
O185        O  0.99752340  0.30263284  0.72953909    -0.62100
O186        O  0.03685947  0.27320789  0.76058018    -0.70500
O187        O  0.03765173  0.24989182  0.73789611    -0.70100
O188        O  0.99945389  0.28066867  0.70563625    -0.61400
O189        O  0.04064369  0.27955929  0.70891240    -0.73900
O190        O  0.99681813  0.25086410  0.73394965    -0.72600
Cu191      Cu  0.01724242  0.28867526  0.74571017     1.04600
Cu192      Cu  0.01875680  0.26448066  0.72078309     1.04300
C193        C  0.98918875  0.25716429  0.74978180     0.93700
C194        C  0.04656965  0.29587503  0.71581808     0.92800
C195        C  0.99208128  0.29630192  0.71281968     0.84900
C196        C  0.04313544  0.25673260  0.75444054     0.91200
C197        C  0.85293438  0.18116619  0.83539665     0.80600
N198        N  0.86812011  0.19090518  0.82716856    -0.77700
C199        C  0.87649214  0.18440695  0.81041055     0.83100
N200        N  0.86975914  0.16772796  0.80199349    -0.77600
C201        C  0.85455507  0.15779320  0.81007727     0.83200
N202        N  0.84621788  0.16455031  0.82684867    -0.79300
C203        C  0.68198418  0.35756031  0.84194073     0.80600
N204        N  0.68912043  0.37476093  0.83490925    -0.77700
C205        C  0.68032881  0.38391310  0.81956517     0.83100
N206        N  0.66452234  0.37549647  0.81093240    -0.77600
C207        C  0.65730072  0.35829260  0.81781063     0.83200
N208        N  0.66604913  0.34944330  0.83331455    -0.79300
O209        O  0.79850326  0.26291126  0.99718324    -0.72500
O210        O  0.76775871  0.29423426  0.95830198    -0.73500
O211        O  0.76877959  0.29162961  0.99985730    -0.62100
O212        O  0.79732808  0.26548639  0.95589710    -0.70500
O213        O  0.77532806  0.24153685  0.95629511    -0.70100
O214        O  0.74546586  0.26905880  0.99829966    -0.61400
O215        O  0.74582307  0.27030903  0.95657001    -0.73900
O216        O  0.77528449  0.24022457  0.99748321    -0.72600
Cu217      Cu  0.78385246  0.27942716  0.97786369     1.04600
Cu218      Cu  0.75964008  0.25451163  0.97715272     1.04300
C219        C  0.79179671  0.24661043  0.00349106     0.93700
C220        C  0.75222197  0.28695762  0.95088466     0.92800
C221        C  0.75268931  0.28442842  0.00611769     0.84900
C222        C  0.79088023  0.24920858  0.94934145     0.91200
C223        C  0.68561497  0.34440212  0.12286171     0.80600
N224        N  0.66980455  0.33608386  0.13160118    -0.77700
C225        C  0.66170054  0.34423574  0.14784805     0.83100
N226        N  0.66942032  0.36098223  0.15520497    -0.77600
C227        C  0.68500011  0.36959082  0.14642247     0.83200
N228        N  0.69305280  0.36129448  0.13024959    -0.79300
C229        C  0.35821754  0.67929591  0.12316887     0.80600
N230        N  0.37499525  0.68716499  0.13035409    -0.77700
C231        C  0.38351487  0.67978052  0.14681546     0.83100
N232        N  0.37499014  0.66423468  0.15591722    -0.77600
C233        C  0.35817984  0.65629617  0.14887095     0.83200
N234        N  0.34975129  0.66405667  0.13265595    -0.79300
C235        C  0.68380943  0.14978653  0.32583647     0.80600
N236        N  0.69060024  0.15871604  0.34224204    -0.77700
C237        C  0.68065749  0.17374701  0.35065838     0.83100
N238        N  0.66349922  0.17967692  0.34256507    -0.77600
C239        C  0.65643723  0.17081554  0.32622462     0.83200
N240        N  0.66674986  0.15606203  0.31782086    -0.79300
C241        C  0.35228893  0.15475769  0.31364443     0.80600
N242        N  0.37036730  0.16034441  0.30765391    -0.77700
C243        C  0.38055122  0.17416814  0.31765292     0.83100
N244        N  0.37261175  0.18201200  0.33415543    -0.77600
C245        C  0.35465847  0.17626462  0.34048199     0.83200
N246        N  0.34447362  0.16278736  0.33002909    -0.79300
C247        C  0.18099079  0.84809805  0.11950389     0.80600
N248        N  0.18789775  0.86558015  0.12601697    -0.77700
C249        C  0.17919191  0.87492298  0.14128740     0.83100
N250        N  0.16353136  0.86647663  0.15013116    -0.77600
C251        C  0.15638505  0.84909947  0.14373645     0.83200
N252        N  0.16521323  0.83992964  0.12845197    -0.79300
C253        C  0.36638313  0.89012418  0.31323722     0.80600
N254        N  0.38188668  0.88078506  0.30501270    -0.77700
C255        C  0.39031174  0.86525539  0.31411348     0.83100
N256        N  0.38327423  0.85918886  0.33169477    -0.77600
C257        C  0.36801685  0.86860083  0.34032798     0.83200
N258        N  0.35955155  0.88399710  0.33094629    -0.79300
O259        O  0.26242835  0.99678701  0.19688444    -0.72500
O260        O  0.28984342  0.04055466  0.22535103    -0.73500
O261        O  0.29253465  0.99917348  0.22525190    -0.62100
O262        O  0.26037801  0.03824506  0.19651637    -0.70500
O263        O  0.23812120  0.03790459  0.22017850    -0.70100
O264        O  0.27007983  0.99715686  0.24857684    -0.61400
O265        O  0.26765195  0.03858828  0.24895794    -0.73900
O266        O  0.23958823  0.99644522  0.22005133    -0.72600
Cu267      Cu  0.27705263  0.01869255  0.21016935     1.04600
Cu268      Cu  0.25306265  0.01742625  0.23525536     1.04300
C269        C  0.24654972  0.98985232  0.20400706     0.93700
C270        C  0.28299093  0.04645580  0.24179128     0.92800
C271        C  0.28667639  0.99203239  0.24149932     0.84900
C272        C  0.24448230  0.04469470  0.20389061     0.91200
C273        C  0.35459183  0.15390455  0.65436201     0.80600
N274        N  0.34649821  0.15984360  0.63720016    -0.77700
C275        C  0.35464407  0.17459827  0.62670869     0.83100
N276        N  0.37092848  0.18363343  0.63357033    -0.77600
C277        C  0.37918059  0.17793160  0.65075075     0.83200
N278        N  0.37101110  0.16294434  0.66109305    -0.79300
C279        C  0.15455657  0.36025109  0.63781807     0.80600
N280        N  0.16254449  0.35099834  0.62209162    -0.77700
C281        C  0.17867293  0.35840954  0.61297441     0.83100
N282        N  0.18687914  0.37516454  0.61993040    -0.77600
C283        C  0.17900255  0.38439967  0.63567805     0.83200
N284        N  0.16308131  0.37678318  0.64466522    -0.79300
C285        C  0.15823904  0.35478352  0.32828266     0.80600
N286        N  0.16661492  0.37033968  0.31908266    -0.77700
C287        C  0.18286206  0.37891254  0.32669068     0.83100
N288        N  0.19084485  0.37160200  0.34335116    -0.77600
C289        C  0.18295708  0.35576138  0.35237987     0.83200
N290        N  0.16654293  0.34748328  0.34481309    -0.79300
C291        C  0.86632371  0.18150927  0.11205714     0.80600
N292        N  0.85918016  0.16454233  0.11968463    -0.77700
C293        C  0.86641589  0.15708125  0.13673041     0.83100
N294        N  0.88082938  0.16705260  0.14618264    -0.77600
C295        C  0.88818853  0.18393758  0.13864424     0.83200
N296        N  0.88097191  0.19093453  0.12153627    -0.79300
C297        C  0.84835112  0.37309655  0.31128364     0.80600
N298        N  0.86594413  0.36732824  0.30403479    -0.77700
C299        C  0.87669936  0.35344978  0.31341116     0.83100
N300        N  0.86944255  0.34529856  0.33010642    -0.77600
C301        C  0.85182245  0.35081611  0.33746192     0.83200
N302        N  0.84146329  0.36496074  0.32807759    -0.79300
O303        O  0.04409900  0.26699630  0.20983564    -0.72500
O304        O  0.00285091  0.29725488  0.23864727    -0.73500
O305        O  0.04395597  0.29413110  0.24140200    -0.62100
O306        O  0.00283168  0.27017396  0.20707663    -0.70500
O307        O  0.00060433  0.24512293  0.22768722    -0.70100
O308        O  0.04058074  0.27004099  0.26292534    -0.61400
O309        O  0.99921099  0.27218547  0.25910115    -0.73900
O310        O  0.04176614  0.24288358  0.23153089    -0.72600
Cu311      Cu  0.02357235  0.28299223  0.22350220     1.04600
Cu312      Cu  0.02042801  0.25671111  0.24605815     1.04300
C313        C  0.04957744  0.25025790  0.21620449     0.93700
C314        C  0.99431539  0.28928122  0.25327641     0.92800
C315        C  0.04869767  0.28606227  0.25764414     0.84900
C316        C  0.99526480  0.25376183  0.21193052     0.91200
C317        C  0.15828927  0.67922792  0.32493250     0.80600
N318        N  0.16727872  0.68958520  0.33928352    -0.77700
C319        C  0.18530455  0.68438799  0.34575030     0.83100
N320        N  0.19425564  0.66852145  0.33779537    -0.77600
C321        C  0.18549105  0.65810412  0.32331383     0.83200
N322        N  0.16752150  0.66360036  0.31688417    -0.79300
C323        C  0.16117757  0.18800629  0.14323823     0.80600
N324        N  0.16940968  0.19724560  0.12763109    -0.77700
C325        C  0.18476658  0.18906153  0.11795257     0.83100
N326        N  0.19195252  0.17161716  0.12424792    -0.77600
C327        C  0.18365309  0.16211921  0.13962310     0.83200
N328        N  0.16829634  0.17041085  0.14907053    -0.79300
C329        C  0.36129651  0.35622013  0.12575107     0.80600
N330        N  0.35315275  0.37171582  0.13510782    -0.77700
C331        C  0.36082468  0.37850341  0.15212486     0.83100
N332        N  0.37683179  0.36961268  0.15980780    -0.77600
C333        C  0.38521680  0.35409415  0.15062933     0.83200
N334        N  0.37725489  0.34738696  0.13364502    -0.79300
C335        C  0.17368635  0.16335023  0.82860824     0.80600
N336        N  0.15773803  0.17203941  0.82068303    -0.77700
C337        C  0.15018333  0.18865138  0.82844030     0.83100
N338        N  0.15901546  0.19685777  0.84422606    -0.77600
C339        C  0.17503737  0.18840253  0.85241757     0.83200
N340        N  0.18238960  0.17173028  0.84441532    -0.79300
C341        C  0.35997822  0.36369663  0.83902373     0.80600
N342        N  0.35064441  0.37891139  0.83012976    -0.77700
C343        C  0.35722039  0.38598993  0.81265715     0.83100
N344        N  0.37310468  0.37763840  0.80411994    -0.77600
C345        C  0.38258823  0.36257502  0.81288809     0.83200
N346        N  0.37602835  0.35575228  0.83038338    -0.79300
O347        O  0.24607680  0.27760175  0.96153383    -0.72500
O348        O  0.27719745  0.30599026  0.00223533    -0.73500
O349        O  0.27613036  0.30642537  0.96060217    -0.62100
O350        O  0.24726046  0.27738611  0.00274138    -0.70500
O351        O  0.26965545  0.25385714  0.00189417    -0.70100
O352        O  0.29871770  0.28317222  0.95989464    -0.61400
O353        O  0.29938530  0.28224853  0.00164637    -0.73900
O354        O  0.26856442  0.25421802  0.96042439    -0.72600
Cu355      Cu  0.26093154  0.29270003  0.98173779     1.04600
Cu356      Cu  0.28490535  0.26758564  0.98085407     1.04300
C357        C  0.25207174  0.26115351  0.95496777     0.93700
C358        C  0.29295210  0.29830841  0.00874590     0.92800
C359        C  0.29200284  0.29947960  0.95355289     0.84900
C360        C  0.25397016  0.26110470  0.00906211     0.91200
O361        O  0.29774612  0.49727979  0.23383460    -0.72500
O362        O  0.26800829  0.53842224  0.26328987    -0.73500
O363        O  0.26938809  0.49693890  0.26414322    -0.62100
O364        O  0.29643405  0.53882479  0.23334963    -0.70500
O365        O  0.27315411  0.53777626  0.21076313    -0.70100
O366        O  0.24585673  0.49591263  0.24189720    -0.61400
O367        O  0.24471269  0.53731367  0.24073065    -0.73900
O368        O  0.27411831  0.49627074  0.21162538    -0.72600
Cu369      Cu  0.28372384  0.51788229  0.24942369     1.04600
Cu370      Cu  0.25864762  0.51675637  0.22548068     1.04300
C371        C  0.29049412  0.49009641  0.21812698     0.93700
C372        C  0.25175450  0.54463437  0.25641411     0.92800
C373        C  0.25329792  0.48973764  0.25796858     0.84900
C374        C  0.28908052  0.54509165  0.21731060     0.91200
O375        O  0.50172520  0.25782000  0.26216814    -0.72500
O376        O  0.54222152  0.28579788  0.23009151    -0.73500
O377        O  0.50089747  0.28673296  0.23237060    -0.62100
O378        O  0.54303345  0.25671489  0.25992354    -0.70500
O379        O  0.54138550  0.23358369  0.23728465    -0.70100
O380        O  0.49937632  0.26340229  0.20967799    -0.61400
O381        O  0.54067127  0.26236980  0.20760992    -0.73900
O382        O  0.50040872  0.23443645  0.23959034    -0.72600
Cu383      Cu  0.52203245  0.27261450  0.24692536     1.04600
Cu384      Cu  0.52037102  0.24767378  0.22273438     1.04300
C385        C  0.49495098  0.24150179  0.25604283     0.93700
C386        C  0.54796583  0.27839897  0.21387072     0.92800
C387        C  0.49358045  0.27973641  0.21665639     0.84900
C388        C  0.54877021  0.24023972  0.25310888     0.91200
O389        O  0.24298667  0.26109175  0.50485387    -0.72500
O390        O  0.27204349  0.23141407  0.46354521    -0.73500
O391        O  0.27174827  0.23105672  0.50519587    -0.62100
O392        O  0.24361689  0.26139337  0.46341281    -0.70500
O393        O  0.26700974  0.28390111  0.46419759    -0.70100
O394        O  0.29507094  0.25358294  0.50519124    -0.61400
O395        O  0.29531341  0.25396572  0.46379880    -0.73900
O396        O  0.26649017  0.28343645  0.50543672    -0.72600
Cu397      Cu  0.25679501  0.24540571  0.48426078     1.04600
Cu398      Cu  0.28180752  0.26944319  0.48468888     1.04300
C399        C  0.24994271  0.27713063  0.51148838     0.93700
C400        C  0.28814825  0.23813394  0.45685531     0.92800
C401        C  0.28787343  0.23772638  0.51195632     0.84900
C402        C  0.25089354  0.27751194  0.45726868     0.91200
O403        O  0.25063632  0.77733444  0.45541983    -0.72500
O404        O  0.27952030  0.80653761  0.49741315    -0.73500
O405        O  0.27994235  0.80708443  0.45587857    -0.62100
O406        O  0.25053514  0.77712750  0.49706209    -0.70500
O407        O  0.27297235  0.75358579  0.49601401    -0.70100
O408        O  0.30339696  0.78468805  0.45673716    -0.61400
O409        O  0.30197187  0.78316051  0.49810772    -0.73900
O410        O  0.27439032  0.75517766  0.45462264    -0.72600
Cu411      Cu  0.26432061  0.79281452  0.47638345     1.04600
Cu412      Cu  0.28897195  0.76835942  0.47632426     1.04300
C413        C  0.25804705  0.76168552  0.44831619     0.93700
C414        C  0.29515366  0.79928282  0.50470422     0.92800
C415        C  0.29665480  0.80086424  0.45020076     0.84900
C416        C  0.25717627  0.76068911  0.50302697     0.91200
O417        O  0.77565581  0.29274583  0.50418681    -0.72500
O418        O  0.74623817  0.26201154  0.46374364    -0.73500
O419        O  0.74748113  0.26194337  0.50503725    -0.62100
O420        O  0.77415047  0.29240460  0.46254965    -0.70500
O421        O  0.79863448  0.27104164  0.46246495    -0.70100
O422        O  0.77111390  0.23971324  0.50409410    -0.61400
O423        O  0.77057124  0.24052629  0.46231286    -0.73900
O424        O  0.79927226  0.27050639  0.50413320    -0.72600
Cu425      Cu  0.76009005  0.27805496  0.48395900     1.04600
Cu426      Cu  0.78575454  0.25467607  0.48327178     1.04300
C427        C  0.79207761  0.28651229  0.51064867     0.93700
C428        C  0.75386890  0.24659008  0.45643158     0.92800
C429        C  0.75479987  0.24578208  0.51098552     0.84900
C430        C  0.79042645  0.28638661  0.45557974     0.91200
O431        O  0.24246195  0.54398718  0.71879616    -0.72500
O432        O  0.27032651  0.50072957  0.74710799    -0.73500
O433        O  0.27133569  0.54198650  0.74877130    -0.62100
O434        O  0.24149905  0.50268342  0.71758518    -0.70500
O435        O  0.26487712  0.50243480  0.69514043    -0.70100
O436        O  0.29439942  0.54271490  0.72584978    -0.61400
O437        O  0.29379955  0.50122033  0.72471067    -0.73900
O438        O  0.26553698  0.54368216  0.69593995    -0.72600
Cu439      Cu  0.25560361  0.52238324  0.73385721     1.04600
Cu440      Cu  0.28047681  0.52256266  0.70962956     1.04300
C441        C  0.24940583  0.55037155  0.70259147     0.93700
C442        C  0.28640772  0.49399624  0.74033553     0.92800
C443        C  0.28759848  0.54853851  0.74230285     0.84900
C444        C  0.24845546  0.49613959  0.70148799     0.91200
O445        O  0.76240514  0.49566302  0.20013155    -0.72500
O446        O  0.79158129  0.53691275  0.22950476    -0.73500
O447        O  0.79126489  0.49536346  0.22970314    -0.62100
O448        O  0.76254864  0.53697955  0.19983397    -0.70500
O449        O  0.73904953  0.53681638  0.22225489    -0.70100
O450        O  0.76809730  0.49577556  0.25241146    -0.61400
O451        O  0.76802729  0.53743137  0.25189652    -0.73900
O452        O  0.73922680  0.49553302  0.22278612    -0.72600
Cu453      Cu  0.77777496  0.51625604  0.21402809     1.04600
Cu454      Cu  0.75282639  0.51643170  0.23816676     1.04300
C455        C  0.74628007  0.48892331  0.20674424     0.93700
C456        C  0.78429138  0.54387776  0.24526943     0.92800
C457        C  0.78408012  0.48873437  0.24568246     0.84900
C458        C  0.74606969  0.54322460  0.20612424     0.91200
O459        O  0.49978507  0.24279525  0.72740116    -0.72500
O460        O  0.53926566  0.27316645  0.75788699    -0.73500
O461        O  0.49817544  0.27317986  0.75541774    -0.62100
O462        O  0.54127087  0.24302028  0.72993645    -0.70500
O463        O  0.54234502  0.26487401  0.70585917    -0.70100
O464        O  0.49933139  0.29532351  0.73165497    -0.61400
O465        O  0.54056213  0.29526000  0.73406746    -0.73900
O466        O  0.50075289  0.26466375  0.70338358    -0.72600
Cu467      Cu  0.51954374  0.25724942  0.74342571     1.04600
Cu468      Cu  0.52077872  0.28078321  0.71785080     1.04300
C469        C  0.49384346  0.24886656  0.71070730     0.93700
C470        C  0.54611770  0.28908729  0.75086946     0.92800
C471        C  0.49206701  0.28911988  0.74777506     0.84900
C472        C  0.54895144  0.24942097  0.71410875     0.91200
O473        O  0.50429493  0.80159111  0.22641908    -0.72500
O474        O  0.54317091  0.77126343  0.19431949    -0.73500
O475        O  0.50179258  0.77160989  0.19799006    -0.62100
O476        O  0.54552351  0.80164705  0.22292086    -0.70500
O477        O  0.54705404  0.77961140  0.24677992    -0.70100
O478        O  0.50394698  0.74907843  0.22139628    -0.61400
O479        O  0.54496493  0.74932157  0.21821992    -0.73900
O480        O  0.50600934  0.77924187  0.24998106    -0.72600
Cu481      Cu  0.52368414  0.78731562  0.20957534     1.04600
Cu482      Cu  0.52561715  0.76353974  0.23489660     1.04300
C483        C  0.49898685  0.79520736  0.24323462     0.93700
C484        C  0.54999092  0.75522395  0.20116162     0.92800
C485        C  0.49596443  0.75562082  0.20577549     0.84900
C486        C  0.55288685  0.79563820  0.23905044     0.91200
O487        O  0.73197683  0.77306089  0.49261693    -0.72500
O488        O  0.76330985  0.74348312  0.45269261    -0.73500
O489        O  0.76028650  0.74310323  0.49442350    -0.62100
O490        O  0.73477196  0.77356856  0.45136182    -0.70500
O491        O  0.75810837  0.79605614  0.45352951    -0.70100
O492        O  0.78411403  0.76513634  0.49574154    -0.61400
O493        O  0.78659237  0.76598721  0.45415808    -0.73900
O494        O  0.75584260  0.79511292  0.49468397    -0.72600
Cu495      Cu  0.74679792  0.75747208  0.47265032     1.04600
Cu496      Cu  0.77201591  0.78131277  0.47453809     1.04300
C497        C  0.73914776  0.78864849  0.50001482     0.93700
C498        C  0.77980583  0.75016378  0.44686216     0.92800
C499        C  0.77599585  0.74957126  0.50222720     0.84900
C500        C  0.74211841  0.78993639  0.44606579     0.91200
O501        O  0.76556853  0.54603931  0.76102711    -0.72500
O502        O  0.79252071  0.50279150  0.73232387    -0.73500
O503        O  0.79419985  0.54419482  0.73087848    -0.62100
O504        O  0.76381364  0.50465045  0.76229630    -0.70500
O505        O  0.74035978  0.50519132  0.73986873    -0.70100
O506        O  0.77087567  0.54380686  0.70829018    -0.61400
O507        O  0.76905755  0.50254658  0.70995985    -0.73900
O508        O  0.74232372  0.54643452  0.73842460    -0.72600
Cu509      Cu  0.77984820  0.52442039  0.74741582     1.04600
Cu510      Cu  0.75484584  0.52452399  0.72336235     1.04300
C511        C  0.74956452  0.55303392  0.75439703     0.93700
C512        C  0.78512741  0.49569774  0.71667933     0.92800
C513        C  0.78738937  0.55002701  0.71441757     0.84900
C514        C  0.74716300  0.49878409  0.75607554     0.91200
O515        O  0.53543807  0.79760055  0.72499250    -0.72500
O516        O  0.49520033  0.76587291  0.75389626    -0.73500
O517        O  0.53626498  0.76645037  0.75234711    -0.62100
O518        O  0.49411670  0.79746991  0.72646802    -0.70500
O519        O  0.49294049  0.77589818  0.70217372    -0.70100
O520        O  0.53620953  0.74527725  0.72766165    -0.61400
O521        O  0.49477302  0.74456254  0.72930729    -0.73900
O522        O  0.53415279  0.77650787  0.70027822    -0.72600
Cu523      Cu  0.51525039  0.78260730  0.74028058     1.04600
Cu524      Cu  0.51448341  0.75980785  0.71400543     1.04300
C525        C  0.54102814  0.79208243  0.70797864     0.93700
C526        C  0.48880018  0.75008288  0.74615262     0.92800
C527        C  0.54286444  0.75097484  0.74422272     0.84900
C528        C  0.48699247  0.79175653  0.71013741     0.91200
C529        C  0.33563081  0.35976008  0.88887979    -0.01600
C530        C  0.33498099  0.33929049  0.89177829     0.07000
C531        C  0.34333397  0.32696578  0.87763088    -0.07600
C532        C  0.35200593  0.33460205  0.86068862     0.04400
C533        C  0.35205438  0.35507584  0.85737712    -0.14800
C534        C  0.34390443  0.36744945  0.87167667    -0.08100
C535        C  0.32454562  0.33021901  0.90867603     0.05400
C536        C  0.30439207  0.33350593  0.91077582    -0.09200
C537        C  0.29350651  0.32378655  0.92523192     0.00400
C538        C  0.30284337  0.31041454  0.93808309     0.00200
C539        C  0.32309881  0.30731949  0.93605416    -0.12800
C540        C  0.33394152  0.31706805  0.92157639     0.00700
C541        C  0.27264132  0.32711048  0.92574001     0.40000
C542        C  0.35472682  0.31344589  0.92031962     0.36600
C543        C  0.32834126  0.37314008  0.90355039     0.36400
C544        C  0.35991070  0.32092070  0.84661261     0.37100
N545        N  0.25591463  0.32975964  0.92605231    -0.43700
N546        N  0.37137725  0.31052995  0.91925538    -0.44100
N547        N  0.36631533  0.30993499  0.83539803    -0.41500
N548        N  0.32262442  0.38387689  0.91536230    -0.42900
H549        H  0.34416909  0.38317777  0.86949926     0.13200
H550        H  0.34268125  0.31121403  0.87963756     0.09700
H551        H  0.29699929  0.34326584  0.90063231     0.10800
H552        H  0.33055478  0.29727977  0.94586254     0.16600
C553        C  0.43137801  0.33724917  0.80697680    -0.01600
C554        C  0.43266240  0.33513795  0.78647474     0.07000
C555        C  0.41754841  0.34218818  0.77457414    -0.07600
C556        C  0.40103674  0.35103139  0.78280009     0.04400
C557        C  0.39975461  0.35341698  0.80338203    -0.14800
C558        C  0.41506127  0.34645857  0.81525153    -0.08100
C559        C  0.44858461  0.32383982  0.77718171     0.05400
C560        C  0.44895040  0.30353186  0.77994969    -0.09200
C561        C  0.46285758  0.29191612  0.77047350     0.00400
C562        C  0.47678052  0.30070307  0.75786222     0.00200
C563        C  0.47636669  0.32113060  0.75515159    -0.12800
C564        C  0.46244272  0.33272100  0.76473871     0.00700
C565        C  0.46192426  0.27099270  0.77344791     0.40000
C566        C  0.46285279  0.35368453  0.76192720     0.36600
C567        C  0.44654083  0.32991154  0.81975872     0.36400
C568        C  0.38506669  0.35585183  0.76981502     0.37100
N569        N  0.46114280  0.25423040  0.77585629    -0.43700
N570        N  0.46322771  0.37049148  0.75973738    -0.44100
N571        N  0.37236355  0.35927831  0.75913591    -0.41500
N572        N  0.45867028  0.32394331  0.82998215    -0.42900
H573        H  0.41423666  0.34811895  0.83104886     0.13200
H574        H  0.41829995  0.33998830  0.75883106     0.09700
H575        H  0.43805192  0.29670048  0.78929948     0.10800
H576        H  0.48710698  0.32811075  0.74573993     0.16600
C577        C  0.33723403  0.41607036  0.77062090    -0.01600
C578        C  0.32792124  0.43168782  0.78038112     0.07000
C579        C  0.32774353  0.43200066  0.80097106    -0.07600
C580        C  0.33691474  0.41724148  0.81189358     0.04400
C581        C  0.34671125  0.40184540  0.80213006    -0.14800
C582        C  0.34669699  0.40154561  0.78150461    -0.08100
C583        C  0.31754274  0.44745261  0.76958497     0.05400
C584        C  0.29750382  0.45007103  0.77308375    -0.09200
C585        C  0.28702460  0.46500286  0.76377061     0.00400
C586        C  0.29668968  0.47779115  0.75057566     0.00200
C587        C  0.31677929  0.47501222  0.74699209    -0.12800
C588        C  0.32725370  0.46013758  0.75644211     0.00700
C589        C  0.26632024  0.46641542  0.76778663     0.40000
C590        C  0.34802577  0.45859150  0.75281114     0.36600
C591        C  0.33673600  0.41420292  0.74952100     0.36400
C592        C  0.33645673  0.41867409  0.83300441     0.37100
N593        N  0.24973403  0.46750124  0.77105676    -0.43700
N594        N  0.36463985  0.45730412  0.74976236    -0.44100
N595        N  0.33597577  0.41991876  0.84992229    -0.41500
N596        N  0.33642578  0.41268395  0.73261973    -0.42900
H597        H  0.35378020  0.38967040  0.77377930     0.13200
H598        H  0.32044918  0.44391433  0.80854103     0.09700
H599        H  0.28998251  0.44029258  0.78312560     0.10800
H600        H  0.32447386  0.48472203  0.73702786     0.16600
C601        C  0.23781128  0.22700498  0.91379927    -0.01600
C602        C  0.21720436  0.22822024  0.91412764     0.07000
C603        C  0.20802419  0.23988990  0.92831203    -0.07600
C604        C  0.21904534  0.25076930  0.94171593     0.04400
C605        C  0.23974091  0.24988383  0.94116521    -0.14800
C606        C  0.24886297  0.23766495  0.92735353    -0.08100
C607        C  0.20508683  0.21796522  0.89931060     0.05400
C608        C  0.20614317  0.19750641  0.89790925    -0.09200
C609        C  0.19634692  0.18746550  0.88297220     0.00400
C610        C  0.18490691  0.19798994  0.86923245     0.00200
C611        C  0.18320006  0.21841974  0.87126633    -0.12800
C612        C  0.19325174  0.22843628  0.88601535     0.00700
C613        C  0.19828836  0.16641489  0.88227350     0.40000
C614        C  0.19195420  0.24954800  0.88660651     0.36600
C615        C  0.24794505  0.21552735  0.89919031     0.36400
C616        C  0.20866425  0.26226343  0.95614290     0.37100
N617        N  0.19993368  0.14955492  0.88166078    -0.43700
N618        N  0.19095780  0.26646027  0.88713298    -0.44100
N619        N  0.20034037  0.27148502  0.96768452    -0.41500
N620        N  0.25594398  0.20629349  0.88743366    -0.42900
H621        H  0.26470350  0.23679758  0.92681912     0.13200
H622        H  0.19216992  0.24060266  0.92878937     0.09700
H623        H  0.21499216  0.18939875  0.90833220     0.10800
H624        H  0.17453311  0.22675274  0.86087474     0.16600
C625        C  0.32159365  0.34187504  0.09009253    -0.01600
C626        C  0.33227524  0.33234816  0.07526636     0.07000
C627        C  0.35270808  0.33120545  0.07660772    -0.07600
C628        C  0.36260559  0.33926807  0.09266142     0.04400
C629        C  0.35186648  0.34830186  0.10790893    -0.14800
C630        C  0.33139820  0.34967204  0.10626875    -0.08100
C631        C  0.32236339  0.32352824  0.05818399     0.05400
C632        C  0.31499193  0.33581044  0.04345656    -0.09200
C633        C  0.30539292  0.32797361  0.02711919     0.00400
C634        C  0.30339724  0.30747106  0.02528109     0.00200
C635        C  0.31086637  0.29523726  0.04005746    -0.12800
C636        C  0.32007101  0.30310567  0.05656035     0.00700
C637        C  0.29821116  0.34123216  0.01227302     0.40000
C638        C  0.32633554  0.29004506  0.07200187     0.36600
C639        C  0.30055036  0.34355701  0.08913378     0.36400
C640        C  0.38373671  0.33894432  0.09257027     0.37100
N641        N  0.29245037  0.35188135  0.00039219    -0.43700
N642        N  0.33118529  0.27957993  0.08444310    -0.44100
N643        N  0.40067352  0.33884046  0.09238292    -0.41500
N644        N  0.28369338  0.34496582  0.08832951    -0.42900
H645        H  0.32294786  0.35659876  0.11780924     0.13200
H646        H  0.36092756  0.32419236  0.06494849     0.09700
H647        H  0.31673229  0.35154554  0.04478024     0.10800
H648        H  0.30900822  0.27950094  0.03897766     0.16600
C649        C  0.33292742  0.42572957  0.15862717    -0.01600
C650        C  0.33295355  0.42807349  0.17915259     0.07000
C651        C  0.34237851  0.41411865  0.19092829    -0.07600
C652        C  0.35170547  0.39790384  0.18256906     0.04400
C653        C  0.35168832  0.39551845  0.16195370    -0.14800
C654        C  0.34223926  0.40957603  0.15024177    -0.08100
C655        C  0.32242448  0.44445133  0.18869179     0.05400
C656        C  0.30213479  0.44592067  0.18615806    -0.09200
C657        C  0.29145184  0.46080564  0.19525930     0.00400
C658        C  0.30113856  0.47446174  0.20751218     0.00200
C659        C  0.32150978  0.47294528  0.20996733    -0.12800
C660        C  0.33218313  0.45819566  0.20058764     0.00700
C661        C  0.27054391  0.46118728  0.19214677     0.40000
C662        C  0.35316963  0.45771146  0.20301705     0.36600
C663        C  0.32360757  0.43979057  0.14584489     0.36400
C664        C  0.36021147  0.38355944  0.19560337     0.37100
N665        N  0.25380926  0.46145547  0.18954285    -0.43700
N666        N  0.36999332  0.45732471  0.20491744    -0.44100
N667        N  0.36695949  0.37208632  0.20611769    -0.41500
N668        N  0.31608089  0.45100803  0.13559408    -0.42900
H669        H  0.34218233  0.40801422  0.13441270     0.13200
H670        H  0.34206408  0.41570351  0.20675594     0.09700
H671        H  0.29458040  0.43521832  0.17716472     0.10800
H672        H  0.32918769  0.48343125  0.21909595     0.16600
C673        C  0.44369153  0.29822665  0.20297676    -0.01600
C674        C  0.44811474  0.31102279  0.18735584     0.07000
C675        C  0.46759377  0.31353260  0.18140627    -0.07600
C676        C  0.48267739  0.30331943  0.19077456     0.04400
C677        C  0.47822940  0.29062847  0.20644704    -0.14800
C678        C  0.45879219  0.28818312  0.21246898    -0.08100
C679        C  0.43258551  0.32211382  0.17722791     0.05400
C680        C  0.42996341  0.34189335  0.18185738    -0.09200
C681        C  0.41488282  0.35276838  0.17325531     0.00400
C682        C  0.40211118  0.34372598  0.15958870     0.00200
C683        C  0.40522947  0.32394494  0.15467244    -0.12800
C684        C  0.42024290  0.31312935  0.16341249     0.00700
C685        C  0.41322769  0.37316390  0.17860696     0.40000
C686        C  0.42267022  0.29280299  0.15810339     0.36600
C687        C  0.42380639  0.29531746  0.20953310     0.36400
C688        C  0.50256775  0.30606583  0.18414222     0.37100
N689        N  0.41197339  0.38948483  0.18300876    -0.43700
N690        N  0.42461331  0.27650413  0.15388864    -0.44100
N691        N  0.51849870  0.30823944  0.17879779    -0.41500
N692        N  0.40785094  0.29296666  0.21472323    -0.42900
H693        H  0.45543410  0.27837191  0.22453607     0.13200
H694        H  0.47096007  0.32339237  0.16938803     0.09700
H695        H  0.43962912  0.34878240  0.19242362     0.10800
H696        H  0.39566106  0.31670341  0.14427230     0.16600
C697        C  0.20060478  0.23046519  0.08449669    -0.01600
C698        C  0.21175502  0.22056921  0.07023187     0.07000
C699        C  0.21380525  0.20020386  0.07139525    -0.07600
C700        C  0.20502612  0.18955512  0.08655871     0.04400
C701        C  0.19389097  0.19941871  0.10107209    -0.14800
C702        C  0.19167381  0.21986671  0.09961811    -0.08100
C703        C  0.22223464  0.23116558  0.05445873     0.05400
C704        C  0.24274305  0.23111520  0.05462753    -0.09200
C705        C  0.25338812  0.24070306  0.03997108     0.00400
C706        C  0.24340754  0.25062166  0.02477909     0.00200
C707        C  0.22284709  0.25067369  0.02464906    -0.12800
C708        C  0.21222430  0.24087269  0.03921648     0.00700
C709        C  0.27447890  0.24073784  0.04134777     0.40000
C710        C  0.19113745  0.24045715  0.03791441     0.36600
C711        C  0.19877828  0.25153773  0.08437552     0.36400
C712        C  0.20754185  0.16855077  0.08647605     0.37100
N713        N  0.29137343  0.24073395  0.04252964    -0.43700
N714        N  0.17423851  0.24008837  0.03686083    -0.44100
N715        N  0.20965636  0.15173148  0.08635689    -0.41500
N716        N  0.19732526  0.26842470  0.08430593    -0.42900
H717        H  0.18334828  0.22774158  0.11060200     0.13200
H718        H  0.22239094  0.19260362  0.06038251     0.09700
H719        H  0.25044534  0.22366190  0.06637262     0.10800
H720        H  0.21506659  0.25807425  0.01292521     0.16600
C721        C  0.19221460  0.60952082  0.29778839    -0.01600
C722        C  0.21275240  0.60797989  0.29669580     0.07000
C723        C  0.22442657  0.62305243  0.30426480    -0.07600
C724        C  0.21598340  0.63951268  0.31301680     0.04400
C725        C  0.19536128  0.64101009  0.31436365    -0.14800
C726        C  0.18372593  0.62591294  0.30659948    -0.08100
C727        C  0.22236755  0.59127061  0.28681537     0.05400
C728        C  0.21878018  0.58827767  0.26682504    -0.09200
C729        C  0.22802450  0.57315443  0.25663495     0.00400
C730        C  0.24117698  0.56056944  0.26659053     0.00200
C731        C  0.24477765  0.56367058  0.28664193    -0.12800
C732        C  0.23556142  0.57889413  0.29676489     0.00700
C733        C  0.22438357  0.57165207  0.23582058     0.40000
C734        C  0.23983031  0.58149221  0.31734082     0.36600
C735        C  0.17955387  0.59442548  0.29009909     0.36400
C736        C  0.22888871  0.65495051  0.31951550     0.37100
N737        N  0.22147766  0.57054464  0.21913735    -0.43700
N738        N  0.24334871  0.58365940  0.33379645    -0.44100
N739        N  0.23928906  0.66730492  0.32464426    -0.41500
N740        N  0.16940985  0.58238694  0.28383535    -0.42900
H741        H  0.16790479  0.62683321  0.30750075     0.13200
H742        H  0.24022373  0.62211403  0.30295047     0.09700
H743        H  0.20898923  0.59809646  0.25905698     0.10800
H744        H  0.25482735  0.55418023  0.29447091     0.16600
C745        C  0.21965020  0.69708749  0.38726429    -0.01600
C746        C  0.21579526  0.71715166  0.39015628     0.07000
C747        C  0.20189517  0.72656228  0.37835289    -0.07600
C748        C  0.19172666  0.71629711  0.36383935     0.04400
C749        C  0.19542749  0.69607180  0.36099285    -0.14800
C750        C  0.20951266  0.68676428  0.37278556    -0.08100
C751        C  0.22640804  0.72872608  0.40511998     0.05400
C752        C  0.24672174  0.73099648  0.40332629    -0.09200
C753        C  0.25730615  0.74178833  0.41713831     0.00400
C754        C  0.24744125  0.75077617  0.43296407     0.00200
C755        C  0.22704711  0.74879818  0.43453443    -0.12800
C756        C  0.21652031  0.73772161  0.42087898     0.00700
C757        C  0.27815609  0.74389417  0.41437035     0.40000
C758        C  0.19572504  0.73516872  0.42370686     0.36600
C759        C  0.23366665  0.68669099  0.39921704     0.36400
C760        C  0.17826773  0.72719577  0.35167224     0.37100
N761        N  0.29486174  0.74558098  0.41213348    -0.43700
N762        N  0.17907122  0.73302492  0.42594140    -0.44100
N763        N  0.16751210  0.73596628  0.34193016    -0.41500
N764        N  0.24492441  0.67836541  0.40876999    -0.42900
H765        H  0.21252347  0.67129007  0.37084209     0.13200
H766        H  0.19918369  0.74209203  0.38034367     0.09700
H767        H  0.25430792  0.72433689  0.39104506     0.10800
H768        H  0.21939338  0.75546105  0.44676972     0.16600
C769        C  0.08080061  0.23184120  0.17443739    -0.01600
C770        C  0.09493864  0.22058212  0.18434144     0.07000
C771        C  0.09369147  0.21827040  0.20470494    -0.07600
C772        C  0.07882174  0.22745460  0.21539107     0.04400
C773        C  0.06500288  0.23939389  0.20559108    -0.14800
C774        C  0.06608706  0.24127976  0.18509732    -0.08100
C775        C  0.11175383  0.21198901  0.17381681     0.05400
C776        C  0.12652052  0.22451232  0.16701089    -0.09200
C777        C  0.14286490  0.21707118  0.15717118     0.00400
C778        C  0.14438019  0.19671952  0.15373342     0.00200
C779        C  0.12962633  0.18422079  0.16080791    -0.12800
C780        C  0.11342792  0.19167194  0.17085878     0.00700
C781        C  0.15829691  0.23051493  0.15185258     0.40000
C782        C  0.09860008  0.17827190  0.17777787     0.36600
C783        C  0.08099325  0.23361514  0.15333434     0.36400
C784        C  0.07870798  0.22501361  0.23641678     0.37100
N785        N  0.17068663  0.24134998  0.14781057    -0.43700
N786        N  0.08674003  0.16752304  0.18335698    -0.44100
N787        N  0.07871665  0.22290826  0.25325401    -0.41500
N788        N  0.08113724  0.23487536  0.13640947    -0.42900
H789        H  0.05533915  0.25005983  0.17736579     0.13200
H790        H  0.10462940  0.20959293  0.21229259     0.09700
H791        H  0.12539043  0.24013103  0.16970542     0.10800
H792        H  0.13063497  0.16859103  0.15831062     0.16600
C793        C  0.92508607  0.32633752  0.31053642    -0.01600
C794        C  0.93162889  0.33090940  0.29153996     0.07000
C795        C  0.92106537  0.34428084  0.28015217    -0.07600
C796        C  0.90355660  0.35245176  0.28703602     0.04400
C797        C  0.89613927  0.34694208  0.30572971    -0.14800
C798        C  0.90752938  0.33427694  0.31744240    -0.08100
C799        C  0.94830866  0.32043027  0.28253633     0.05400
C800        C  0.94566533  0.30078631  0.27721504    -0.09200
C801        C  0.96053056  0.29040838  0.26773631     0.00400
C802        C  0.97842379  0.29977337  0.26340330     0.00200
C803        C  0.98108711  0.31946276  0.26872174    -0.12800
C804        C  0.96621799  0.32979232  0.27839515     0.00700
C805        C  0.95669752  0.27050267  0.26168344     0.40000
C806        C  0.96975927  0.34975603  0.28437043     0.36600
C807        C  0.93619480  0.31350580  0.32317080     0.36400
C808        C  0.89369396  0.36612246  0.27426563     0.37100
N809        N  0.95365126  0.25458560  0.25672532    -0.43700
N810        N  0.97262590  0.36571688  0.28929346    -0.44100
N811        N  0.88613032  0.37717868  0.26386579    -0.41500
N812        N  0.94518495  0.30331631  0.33331103    -0.42900
H813        H  0.90266815  0.33027223  0.33203679     0.13200
H814        H  0.92625992  0.34790040  0.26554926     0.09700
H815        H  0.93177959  0.29366482  0.28017832     0.10800
H816        H  0.99487994  0.32667064  0.26555752     0.16600
C817        C  0.82189301  0.42108566  0.30513166    -0.01600
C818        C  0.81872168  0.42173793  0.28470227     0.07000
C819        C  0.82464809  0.40586726  0.27305268    -0.07600
C820        C  0.83386116  0.38956830  0.28145346     0.04400
C821        C  0.83744004  0.38915639  0.30182937    -0.14800
C822        C  0.83104776  0.40479413  0.31351875    -0.08100
C823        C  0.80977649  0.43905462  0.27510497     0.05400
C824        C  0.82119916  0.45025999  0.26221971    -0.09200
C825        C  0.81343781  0.46675885  0.25279627     0.00400
C826        C  0.79370696  0.47222346  0.25614026     0.00200
C827        C  0.78240337  0.46097938  0.26923575    -0.12800
C828        C  0.79019594  0.44449696  0.27858328     0.00700
C829        C  0.82626450  0.47789865  0.24017310     0.40000
C830        C  0.77763876  0.43309108  0.29124106     0.36600
C831        C  0.81655772  0.43725012  0.31768072     0.36400
C832        C  0.83870989  0.37314729  0.26903615     0.37100
N833        N  0.83663691  0.48677215  0.23010230    -0.43700
N834        N  0.76757256  0.42400958  0.30143222    -0.44100
N835        N  0.84242914  0.35994372  0.25907339    -0.41500
N836        N  0.81222872  0.45018266  0.32774608    -0.42900
H837        H  0.83377430  0.40455623  0.32918878     0.13200
H838        H  0.82199219  0.40621458  0.25737455     0.09700
H839        H  0.83632110  0.44614902  0.25963744     0.10800
H840        H  0.76721098  0.46475280  0.27186450     0.16600
C841        C  0.82932349  0.30927137  0.42346849    -0.01600
C842        C  0.81816106  0.31636341  0.40756119     0.07000
C843        C  0.79780763  0.31368059  0.40762954    -0.07600
C844        C  0.78849533  0.30414541  0.42321288     0.04400
C845        C  0.79965138  0.29702740  0.43913364    -0.14800
C846        C  0.82003221  0.29959655  0.43902359    -0.08100
C847        C  0.82743524  0.32572903  0.39022152     0.05400
C848        C  0.84067609  0.31483185  0.37892708    -0.09200
C849        C  0.84898436  0.32263937  0.36185339     0.00400
C850        C  0.84397121  0.34183487  0.35571983     0.00200
C851        C  0.83074597  0.35272396  0.36717957    -0.12800
C852        C  0.82252456  0.34488467  0.38426826     0.00700
C853        C  0.86186790  0.31018132  0.35061800     0.40000
C854        C  0.80927358  0.35687725  0.39558241     0.36600
C855        C  0.85026125  0.31200524  0.42427426     0.36400
C856        C  0.76765202  0.30084275  0.42192253     0.37100
N857        N  0.87216940  0.30010077  0.34169487    -0.43700
N858        N  0.79863123  0.36648214  0.40462486    -0.44100
N859        N  0.75097268  0.29809674  0.42085786    -0.41500
N860        N  0.86704416  0.31419353  0.42488794    -0.42900
H861        H  0.82869437  0.29417053  0.45119811     0.13200
H862        H  0.78921486  0.31869715  0.39522997     0.09700
H863        H  0.84421557  0.29995867  0.38327285     0.10800
H864        H  0.82684695  0.36750658  0.36285755     0.16600
C865        C  0.93361763  0.21461749  0.14631056    -0.01600
C866        C  0.93481884  0.21542872  0.16690015     0.07000
C867        C  0.92028987  0.20641328  0.17827979    -0.07600
C868        C  0.90480885  0.19631944  0.16945349     0.04400
C869        C  0.90394950  0.19480538  0.14880216    -0.14800
C870        C  0.91828648  0.20431030  0.13744014    -0.08100
C871        C  0.95124237  0.22526982  0.17704732     0.05400
C872        C  0.95186827  0.24577644  0.17773433    -0.09200
C873        C  0.96627309  0.25545707  0.18869636     0.00400
C874        C  0.98031810  0.24445939  0.19926409     0.00200
C875        C  0.97985922  0.22392068  0.19811275    -0.12800
C876        C  0.96557160  0.21431684  0.18703668     0.00700
C877        C  0.96558636  0.27657138  0.18968805     0.40000
C878        C  0.96590585  0.19319506  0.18598506     0.36600
C879        C  0.94813144  0.22390617  0.13404054     0.36400
C880        C  0.88950807  0.18868363  0.18190933     0.37100
N881        N  0.96497539  0.29349195  0.19049269    -0.43700
N882        N  0.96613289  0.17627654  0.18501302    -0.44100
N883        N  0.87719462  0.18274689  0.19194627    -0.41500
N884        N  0.95972296  0.23137700  0.12417094    -0.42900
H885        H  0.91767123  0.20347314  0.12156792     0.13200
H886        H  0.92100393  0.20742025  0.19414154     0.09700
H887        H  0.94075984  0.25419642  0.17011277     0.10800
H888        H  0.99072622  0.21532129  0.20587921     0.16600
C889        C  0.12650838  0.33086082  0.29002683    -0.01600
C890        C  0.11014961  0.32480373  0.30108131     0.07000
C891        C  0.10963553  0.32848184  0.32130425    -0.07600
C892        C  0.12507526  0.33839202  0.33052085     0.04400
C893        C  0.14132141  0.34473191  0.31935447    -0.14800
C894        C  0.14181915  0.34084886  0.29917549    -0.08100
C895        C  0.09323750  0.31522708  0.29147956     0.05400
C896        C  0.09000597  0.29516372  0.29434279    -0.09200
C897        C  0.07526507  0.28532191  0.28396504     0.00400
C898        C  0.06359932  0.29568079  0.27024867     0.00200
C899        C  0.06649534  0.31596401  0.26807928    -0.12800
C900        C  0.08099853  0.32575899  0.27866033     0.00700
C901        C  0.07299073  0.26457161  0.28731893     0.40000
C902        C  0.08308275  0.34666735  0.27619460     0.36600
C903        C  0.12802198  0.32669935  0.26931786     0.36400
C904        C  0.12350249  0.34263483  0.35120572     0.37100
N905        N  0.07120383  0.24796927  0.29024142    -0.43700
N906        N  0.08478120  0.36342829  0.27432690    -0.44100
N907        N  0.12220243  0.34611313  0.36776479    -0.41500
N908        N  0.12922768  0.32334315  0.25272941    -0.42900
H909        H  0.15440516  0.34528168  0.29058338     0.13200
H910        H  0.09700216  0.32392371  0.32979514     0.09700
H911        H  0.09935857  0.28709370  0.30434316     0.10800
H912        H  0.05739450  0.32426922  0.25804518     0.16600
C913        C  0.19058787  0.32430036  0.39734168    -0.01600
C914        C  0.21104190  0.32518844  0.39983825     0.07000
C915        C  0.22218880  0.33714966  0.38742223    -0.07600
C916        C  0.21337591  0.34793506  0.37241375     0.04400
C917        C  0.19289051  0.34651037  0.36936406    -0.14800
C918        C  0.18173272  0.33482315  0.38216091    -0.08100
C919        C  0.22120835  0.31314106  0.41476316     0.05400
C920        C  0.21925709  0.29268977  0.41403758    -0.09200
C921        C  0.22870446  0.28071388  0.42771248     0.00400
C922        C  0.24056761  0.28926349  0.44234438     0.00200
C923        C  0.24278602  0.30971449  0.44280152    -0.12800
C924        C  0.23320047  0.32166535  0.42924614     0.00700
C925        C  0.22651958  0.25975436  0.42588360     0.40000
C926        C  0.23560714  0.34262746  0.43076949     0.36600
C927        C  0.17838333  0.31276436  0.41023202     0.36400
C928        C  0.22600518  0.35956962  0.36002371     0.37100
N929        N  0.22476224  0.24296266  0.42438103    -0.43700
N930        N  0.23761882  0.35941424  0.43195938    -0.44100
N931        N  0.23618865  0.36893226  0.35020386    -0.41500
N932        N  0.16866408  0.30347154  0.42057030    -0.42900
H933        H  0.16601257  0.33376838  0.38024133     0.13200
H934        H  0.23795690  0.33771817  0.38920692     0.09700
H935        H  0.21043627  0.28605839  0.40260604     0.10800
H936        H  0.25181179  0.31645424  0.45400669     0.16600
C937        C  0.21327426  0.45490971  0.27414805    -0.01600
C938        C  0.22244035  0.44401593  0.28915590     0.07000
C939        C  0.24180505  0.44853333  0.29429244    -0.07600
C940        C  0.25204403  0.46361108  0.28483915     0.04400
C941        C  0.24305293  0.47417408  0.26934214    -0.14800
C942        C  0.22361381  0.46962415  0.26433958    -0.08100
C943        C  0.21227188  0.42746185  0.29910954     0.05400
C944        C  0.20434421  0.41237788  0.28759846    -0.09200
C945        C  0.19428016  0.39670867  0.29614312     0.00400
C946        C  0.19243612  0.39563170  0.31674784     0.00200
C947        C  0.20078184  0.41046164  0.32831337    -0.12800
C948        C  0.21048623  0.42635945  0.31972252     0.00700
C949        C  0.18677613  0.38163016  0.28336690     0.40000
C950        C  0.21809956  0.44148468  0.33239508     0.36600
C951        C  0.19312641  0.45152349  0.26871562     0.36400
C952        C  0.27174885  0.46759978  0.29137078     0.37100
N953        N  0.18083497  0.36967052  0.27293416    -0.43700
N954        N  0.22426462  0.45352920  0.34260249    -0.44100
N955        N  0.28747497  0.47080115  0.29679466    -0.41500
N956        N  0.17700752  0.44874349  0.26432602    -0.42900
H957        H  0.21629741  0.47770177  0.25277180     0.13200
H958        H  0.24905459  0.44008978  0.30564519     0.09700
H959        H  0.20612402  0.41280121  0.27179452     0.10800
H960        H  0.19951085  0.40975435  0.34415856     0.16600
C961        C  0.19536879  0.31505187  0.58268426    -0.01600
C962        C  0.20790370  0.32380453  0.56875235     0.07000
C963        C  0.21011007  0.34423027  0.56878293    -0.07600
C964        C  0.20072532  0.35588727  0.58281765     0.04400
C965        C  0.18828250  0.34712847  0.59696376    -0.14800
C966        C  0.18558431  0.32670381  0.59641480    -0.08100
C967        C  0.21886232  0.31192252  0.55410498     0.05400
C968        C  0.20848634  0.29930756  0.54163584    -0.09200
C969        C  0.21821520  0.28756740  0.52792994     0.00400
C970        C  0.23883575  0.28867005  0.52617600     0.00200
C971        C  0.24915815  0.30155010  0.53846086    -0.12800
C972        C  0.23943599  0.31299617  0.55240387     0.00700
C973        C  0.20650934  0.27496871  0.51561820     0.40000
C974        C  0.25100904  0.32535092  0.56507978     0.36600
C975        C  0.19290198  0.29406634  0.58375843     0.36400
C976        C  0.20422763  0.37672001  0.58209593     0.37100
N977        N  0.19708148  0.26483692  0.50583639    -0.43700
N978        N  0.26032298  0.33528940  0.57516123    -0.44100
N979        N  0.20737808  0.39335426  0.58133272    -0.41500
N980        N  0.19090717  0.27725407  0.58458762    -0.42900
H981        H  0.17630174  0.31962715  0.60720597     0.13200
H982        H  0.21939580  0.35110419  0.55785415     0.09700
H983        H  0.19265222  0.29866795  0.54259233     0.10800
H984        H  0.26496809  0.30250963  0.53738286     0.16600
C985        C  0.20414285  0.41561125  0.67323438    -0.01600
C986        C  0.20638043  0.43351310  0.66313009     0.07000
C987        C  0.19994332  0.43508078  0.64364279    -0.07600
C988        C  0.19113072  0.41915149  0.63424378     0.04400
C989        C  0.18872433  0.40138928  0.64446151    -0.14800
C990        C  0.19514834  0.39981428  0.66390887    -0.08100
C991        C  0.21622335  0.45045928  0.67232215     0.05400
C992        C  0.23384358  0.45708911  0.66421310    -0.09200
C993        C  0.24445077  0.47220004  0.67304379     0.00400
C994        C  0.23737849  0.48095969  0.69051989     0.00200
C995        C  0.21926220  0.47467818  0.69813045    -0.12800
C996        C  0.20865020  0.45968413  0.68915884     0.00700
C997        C  0.26256356  0.47803550  0.66381796     0.40000
C998        C  0.19000416  0.45410293  0.69746073     0.36600
C999        C  0.21143548  0.41291122  0.69293546     0.36400
C1000       C  0.18388558  0.42164122  0.61452306     0.37100
N1001       N  0.27704897  0.48264755  0.65631780    -0.43700
N1002       N  0.17511439  0.44961778  0.70420178    -0.44100
N1003       N  0.17796286  0.42375353  0.59876649    -0.41500
N1004       N  0.21722058  0.41077008  0.70874125    -0.42900
H1005       H  0.19334709  0.38608725  0.67173797     0.13200
H1006       H  0.20168981  0.44882497  0.63584647     0.09700
H1007       H  0.23954274  0.45010669  0.65110929     0.10800
H1008       H  0.21333536  0.48135424  0.71127738     0.16600
C1009       C  0.31506948  0.19071604  0.59178069    -0.01600
C1010       C  0.32601191  0.19644343  0.57522266     0.07000
C1011       C  0.34641539  0.19437260  0.57533762    -0.07600
C1012       C  0.35606826  0.18695842  0.59182120     0.04400
C1013       C  0.34516231  0.18144174  0.60853292    -0.14800
C1014       C  0.32467565  0.18306100  0.60817462    -0.08100
C1015       C  0.31668248  0.20636602  0.55840383     0.05400
C1016       C  0.32045747  0.22631332  0.55570347    -0.09200
C1017       C  0.31140185  0.23678112  0.54065333     0.00400
C1018       C  0.29821516  0.22714780  0.52784230     0.00200
C1019       C  0.29468862  0.20701036  0.53045826    -0.12800
C1020       C  0.30389566  0.19656794  0.54553242     0.00700
C1021       C  0.31547106  0.25750628  0.53933140     0.40000
C1022       C  0.30028179  0.17581063  0.54736151     0.36600
C1023       C  0.29414140  0.19356903  0.59266935     0.36400
C1024       C  0.37707873  0.18483323  0.59104331     0.37100
N1025       N  0.31878282  0.27410041  0.53830784    -0.43700
N1026       N  0.29742859  0.15916616  0.54882980    -0.44100
N1027       N  0.39391518  0.18310927  0.59039870    -0.41500
N1028       N  0.27738468  0.19593497  0.59336352    -0.42900
H1029       H  0.31620362  0.17903860  0.62102075     0.13200
H1030       H  0.35481894  0.19885403  0.56259717     0.09700
H1031       H  0.33027406  0.23382362  0.56569344     0.10800
H1032       H  0.28483312  0.19935791  0.52063622     0.16600
C1033       C  0.42864740  0.18544137  0.67443503    -0.01600
C1034       C  0.43103650  0.20593495  0.67315093     0.07000
C1035       C  0.41670222  0.21713693  0.66365104    -0.07600
C1036       C  0.39980055  0.20836220  0.65608252     0.04400
C1037       C  0.39699165  0.18790823  0.65807649    -0.14800
C1038       C  0.41160705  0.17666700  0.66717660    -0.08100
C1039       C  0.44768832  0.21620804  0.68263798     0.05400
C1040       C  0.46068578  0.22723747  0.67111265    -0.09200
C1041       C  0.47596673  0.23791533  0.67975772     0.00400
C1042       C  0.47836002  0.23765224  0.70037778     0.00200
C1043       C  0.46531448  0.22652657  0.71178913    -0.12800
C1044       C  0.45002902  0.21603524  0.70317666     0.00700
C1045       C  0.48915532  0.24854912  0.66707351     0.40000
C1046       C  0.43647197  0.20582690  0.71582955     0.36600
C1047       C  0.44358948  0.17310620  0.68289881     0.36400
C1048       C  0.38522895  0.22089932  0.64725336     0.37100
N1049       N  0.49970970  0.25703275  0.65685584    -0.43700
N1050       N  0.42563582  0.19759907  0.72595307    -0.44100
N1051       N  0.37361180  0.23102240  0.64019187    -0.41500
N1052       N  0.45555809  0.16320552  0.68967369    -0.42900
H1053       H  0.40982324  0.16092827  0.66841287     0.13200
H1054       H  0.41847849  0.23289805  0.66265174     0.09700
H1055       H  0.45886001  0.22749113  0.65531266     0.10800
H1056       H  0.46672889  0.22639264  0.72763353     0.16600
C1057       C  0.22836747  0.07780445  0.16259102    -0.01600
C1058       C  0.21763933  0.09224812  0.17265559     0.07000
C1059       C  0.21456459  0.09034531  0.19289570    -0.07600
C1060       C  0.22253566  0.07464409  0.20335344     0.04400
C1061       C  0.23391735  0.06046877  0.19343360    -0.14800
C1062       C  0.23650434  0.06217607  0.17302545    -0.08100
C1063       C  0.20920235  0.10943742  0.16253034     0.05400
C1064       C  0.18884338  0.11170753  0.16261921    -0.09200
C1065       C  0.18013330  0.12849277  0.15483027     0.00400
C1066       C  0.19195581  0.14341808  0.14666793     0.00200
C1067       C  0.21234530  0.14080969  0.14600933    -0.12800
C1068       C  0.22105059  0.12409885  0.15406105     0.00700
C1069       C  0.15904586  0.12972495  0.15518332     0.40000
C1070       C  0.24214873  0.12283626  0.15439055     0.36600
C1071       C  0.23099018  0.07856325  0.14158485     0.36400
C1072       C  0.21949008  0.07408299  0.22430383     0.37100
N1073       N  0.14213258  0.13047119  0.15555864    -0.43700
N1074       N  0.25905592  0.12185981  0.15464207    -0.44100
N1075       N  0.21697070  0.07373196  0.24108625    -0.41500
N1076       N  0.23311773  0.07916188  0.12475569    -0.42900
H1077       H  0.24498740  0.05128414  0.16516696     0.13200
H1078       H  0.20618252  0.10142333  0.20061380     0.09700
H1079       H  0.17973763  0.10037969  0.16906356     0.10800
H1080       H  0.22158419  0.15221474  0.13991498     0.16600
C1081       C  0.33706851  0.93626724  0.30406906    -0.01600
C1082       C  0.33437255  0.93570551  0.28357928     0.07000
C1083       C  0.34327891  0.92079021  0.27266309    -0.07600
C1084       C  0.35414217  0.90605811  0.28189193     0.04400
C1085       C  0.35622433  0.90610950  0.30256694    -0.14800
C1086       C  0.34773300  0.92142672  0.31338708    -0.08100
C1087       C  0.32205681  0.95028511  0.27317989     0.05400
C1088       C  0.33078509  0.96254399  0.25922640    -0.09200
C1089       C  0.31965382  0.97614621  0.24866875     0.00400
C1090       C  0.29922609  0.97776979  0.25216231     0.00200
C1091       C  0.29055727  0.96533508  0.26612689    -0.12800
C1092       C  0.30170746  0.95151477  0.27639059     0.00700
C1093       C  0.32980258  0.98828513  0.23458527     0.40000
C1094       C  0.29183471  0.93817732  0.28952714     0.36600
C1095       C  0.32929837  0.95209522  0.31574896     0.36400
C1096       C  0.36206440  0.89062519  0.26977872     0.37100
N1097       N  0.33799224  0.99789760  0.22325030    -0.43700
N1098       N  0.28396771  0.92740931  0.30000946    -0.44100
N1099       N  0.36839947  0.87829471  0.26001903    -0.41500
N1100       N  0.32308283  0.96481969  0.32506340    -0.42900
H1101       H  0.34950856  0.92186945  0.32917718     0.13200
H1102       H  0.34130900  0.92040191  0.25687855     0.09700
H1103       H  0.34640718  0.96145135  0.25658066     0.10800
H1104       H  0.27492146  0.96607799  0.26875136     0.16600
C1105       C  0.45482349  0.82648587  0.25412256    -0.01600
C1106       C  0.45414061  0.82615315  0.27477099     0.07000
C1107       C  0.46855391  0.81593127  0.28522250    -0.07600
C1108       C  0.48361330  0.80607894  0.27535306     0.04400
C1109       C  0.48412771  0.80614200  0.25459778    -0.14800
C1110       C  0.46975440  0.81658875  0.24425111    -0.08100
C1111       C  0.43838683  0.83632984  0.28564316     0.05400
C1112       C  0.42389190  0.82514946  0.29493037    -0.09200
C1113       C  0.40807706  0.83421273  0.30432423     0.00400
C1114       C  0.40679450  0.85488857  0.30467989     0.00200
C1115       C  0.42142962  0.86601796  0.29547156    -0.12800
C1116       C  0.43720568  0.85692725  0.28609943     0.00700
C1117       C  0.39280951  0.82191508  0.31227295     0.40000
C1118       C  0.45208941  0.86898576  0.27713532     0.36600
C1119       C  0.44012672  0.83656735  0.24273920     0.36400
C1120       C  0.49875188  0.79684454  0.28689453     0.37100
N1121       N  0.38058052  0.81190847  0.31841300    -0.43700
N1122       N  0.46403538  0.87859947  0.26990856    -0.44100
N1123       N  0.51093811  0.78959726  0.29618737    -0.41500
N1124       N  0.42838797  0.84470854  0.23362137    -0.42900
H1125       H  0.46993532  0.81671725  0.22834695     0.13200
H1126       H  0.46815054  0.81587612  0.30112659     0.09700
H1127       H  0.42467125  0.80928953  0.29434412     0.10800
H1128       H  0.42060624  0.88188161  0.29571604     0.16600
C1129       C  0.35110655  0.83143967  0.37764508    -0.01600
C1130       C  0.34052067  0.84299713  0.39108925     0.07000
C1131       C  0.34008181  0.86340410  0.38859057    -0.07600
C1132       C  0.34931460  0.87227468  0.37249247     0.04400
C1133       C  0.35941373  0.86058888  0.35865080    -0.14800
C1134       C  0.36055246  0.84028211  0.36179541    -0.08100
C1135       C  0.32925945  0.83379819  0.40729603     0.05400
C1136       C  0.33919433  0.82229444  0.42111758    -0.09200
C1137       C  0.32894991  0.81153681  0.43525038     0.00400
C1138       C  0.30825772  0.81247851  0.43595369     0.00200
C1139       C  0.29840675  0.82471367  0.42263068    -0.12800
C1140       C  0.30868473  0.83518987  0.40827788     0.00700
C1141       C  0.34014712  0.79982977  0.44887481     0.40000
C1142       C  0.29773794  0.84647003  0.39410950     0.36600
C1143       C  0.35160077  0.81033691  0.37914046     0.36400
C1144       C  0.34838858  0.89333428  0.37079960     0.37100
N1145       N  0.34912115  0.79039477  0.45974012    -0.43700
N1146       N  0.28903100  0.85551721  0.38271184    -0.44100
N1147       N  0.34758200  0.91022333  0.36958098    -0.41500
N1148       N  0.35196058  0.79343249  0.38032858    -0.42900
H1149       H  0.36817809  0.83107025  0.35137208     0.13200
H1150       H  0.33223914  0.87237854  0.39910156     0.09700
H1151       H  0.35503517  0.82137539  0.42054568     0.10800
H1152       H  0.28256371  0.82560358  0.42298513     0.16600
C1153       C  0.19187774  0.91477840  0.17765234    -0.01600
C1154       C  0.20406546  0.92716192  0.16650085     0.07000
C1155       C  0.20737656  0.92290922  0.14667303    -0.07600
C1156       C  0.19905999  0.90634681  0.13790907     0.04400
C1157       C  0.18729680  0.89350477  0.14920637    -0.14800
C1158       C  0.18357084  0.89821475  0.16895861    -0.08100
C1159       C  0.21465714  0.94379239  0.17553730     0.05400
C1160       C  0.23509574  0.94265202  0.17705951    -0.09200
C1161       C  0.24579912  0.95758581  0.18610376     0.00400
C1162       C  0.23598090  0.97407411  0.19373442     0.00200
C1163       C  0.21552016  0.97527460  0.19210011    -0.12800
C1164       C  0.20483065  0.96038219  0.18292597     0.00700
C1165       C  0.26665393  0.95508751  0.18841730     0.40000
C1166       C  0.18389373  0.96254840  0.18100250     0.36600
C1167       C  0.18836016  0.91826013  0.19824836     0.36400
C1168       C  0.20263828  0.90322062  0.11727557     0.37100
N1169       N  0.28334848  0.95304554  0.19040154    -0.43700
N1170       N  0.16711377  0.96426952  0.17947356    -0.44100
N1171       N  0.20551112  0.90076419  0.10072989    -0.41500
N1172       N  0.18547099  0.92104989  0.21473652    -0.42900
H1173       H  0.17462304  0.88860245  0.17791087     0.13200
H1174       H  0.21665957  0.93252272  0.13805870     0.09700
H1175       H  0.24265467  0.92981863  0.17153208     0.10800
H1176       H  0.20789700  0.98796496  0.19786369     0.16600
C1177       C  0.34209772  0.10815271  0.28604952    -0.01600
C1178       C  0.32193243  0.10977772  0.28214561     0.07000
C1179       C  0.31163594  0.12633897  0.28849310    -0.07600
C1180       C  0.32122956  0.14132653  0.29866107     0.04400
C1181       C  0.34147518  0.13970065  0.30260987    -0.14800
C1182       C  0.35173221  0.12315485  0.29605794    -0.08100
C1183       C  0.31137276  0.09418414  0.27155727     0.05400
C1184       C  0.29995324  0.08098804  0.28228752    -0.09200
C1185       C  0.29049254  0.06539959  0.27297653     0.00400
C1186       C  0.29266228  0.06271897  0.25245638     0.00200
C1187       C  0.30397091  0.07623329  0.24176211    -0.12800
C1188       C  0.31309344  0.09201177  0.25111476     0.00700
C1189       C  0.27903783  0.05229169  0.28502657     0.40000
C1190       C  0.32374437  0.10611396  0.23947306     0.36600
C1191       C  0.35304490  0.09097709  0.28038734     0.36400
C1192       C  0.31014857  0.15850480  0.30408000     0.37100
N1193       N  0.26978175  0.04190232  0.29472972    -0.43700
N1194       N  0.33214904  0.11757399  0.23021674    -0.44100
N1195       N  0.30119850  0.17227020  0.30827561    -0.41500
N1196       N  0.36179385  0.07716672  0.27593657    -0.42900
H1197       H  0.36724011  0.12174070  0.29915113     0.13200
H1198       H  0.29612512  0.12759288  0.28534922     0.09700
H1199       H  0.29861352  0.08278361  0.29804177     0.10800
H1200       H  0.30541301  0.07469961  0.22599891     0.16600
C1201       C  0.42963914  0.19989731  0.31674203    -0.01600
C1202       C  0.43439024  0.19936469  0.29667303     0.07000
C1203       C  0.42232336  0.18913251  0.28366888    -0.07600
C1204       C  0.40504958  0.18027901  0.29013676     0.04400
C1205       C  0.39965489  0.18148882  0.31020267    -0.14800
C1206       C  0.41239401  0.19100871  0.32333737    -0.08100
C1207       C  0.45101831  0.21050985  0.28844202     0.05400
C1208       C  0.46682031  0.20023861  0.28035392    -0.09200
C1209       C  0.48161994  0.21015193  0.27023101     0.00400
C1210       C  0.48058541  0.23069744  0.26799765     0.00200
C1211       C  0.46516186  0.24103489  0.27677827    -0.12800
C1212       C  0.45030637  0.23109206  0.28680153     0.00700
C1213       C  0.49789142  0.19898018  0.26263311     0.40000
C1214       C  0.43392259  0.24214855  0.29431878     0.36600
C1215       C  0.44211894  0.20966963  0.33073512     0.36400
C1216       C  0.39279555  0.17118157  0.27548698     0.37100
N1217       N  0.51098528  0.19006094  0.25662510    -0.43700
N1218       N  0.42073838  0.25092598  0.30033738    -0.44100
N1219       N  0.38303592  0.16394550  0.26366559    -0.41500
N1220       N  0.45211728  0.21750672  0.34195125    -0.42900
H1221       H  0.40874751  0.19183275  0.33878168     0.13200
H1222       H  0.42604600  0.18876223  0.26819796     0.09700
H1223       H  0.46738268  0.18441381  0.28167332     0.10800
H1224       H  0.46428563  0.25681170  0.27509959     0.16600
C1225       C  0.31602001  0.19702097  0.37398842    -0.01600
C1226       C  0.32696036  0.20207274  0.39072836     0.07000
C1227       C  0.34719581  0.19869127  0.39099372    -0.07600
C1228       C  0.35665906  0.19043108  0.37479100     0.04400
C1229       C  0.34566914  0.18519899  0.35802742    -0.14800
C1230       C  0.32538052  0.18850879  0.35791936    -0.08100
C1231       C  0.31755106  0.21111155  0.40802105     0.05400
C1232       C  0.30352466  0.20041695  0.41851889    -0.09200
C1233       C  0.29375034  0.20871892  0.43451151     0.00400
C1234       C  0.29838316  0.22804928  0.44052723     0.00200
C1235       C  0.31272369  0.23853765  0.43005478    -0.12800
C1236       C  0.32208900  0.23035000  0.41381201     0.00700
C1237       C  0.27900719  0.19701082  0.44417307     0.40000
C1238       C  0.33552914  0.24232108  0.40267509     0.36600
C1239       C  0.29532017  0.20110008  0.37268895     0.36400
C1240       C  0.37746183  0.18695823  0.37611343     0.37100
N1241       N  0.26710131  0.18760232  0.45174174    -0.43700
N1242       N  0.34618419  0.25192381  0.39362998    -0.44100
N1243       N  0.39413629  0.18424406  0.37732291    -0.41500
N1244       N  0.27875289  0.20445203  0.37163707    -0.42900
H1245       H  0.31682794  0.18480948  0.34505930     0.13200
H1246       H  0.35558985  0.20250207  0.40394216     0.09700
H1247       H  0.30002833  0.18559125  0.41399666     0.10800
H1248       H  0.31625035  0.25347203  0.43413760     0.16600
C1249       C  0.62552673  0.19125769  0.28545427    -0.01600
C1250       C  0.60871420  0.19772166  0.29556825     0.07000
C1251       C  0.60711154  0.19424051  0.31580547    -0.07600
C1252       C  0.62229077  0.18509949  0.32612476     0.04400
C1253       C  0.63925462  0.17898242  0.31603128    -0.14800
C1254       C  0.64048728  0.18180045  0.29568398    -0.08100
C1255       C  0.59290374  0.20846365  0.28527234     0.05400
C1256       C  0.58328799  0.19940066  0.26957363    -0.09200
C1257       C  0.56912640  0.20939333  0.25867056     0.00400
C1258       C  0.56395054  0.22886055  0.26379782     0.00200
C1259       C  0.57345476  0.23773088  0.27980128    -0.12800
C1260       C  0.58787918  0.22780588  0.29040414     0.00700
C1261       C  0.56046546  0.19916639  0.24229480     0.40000
C1262       C  0.59781259  0.23805082  0.30602361     0.36600
C1263       C  0.62822244  0.19501998  0.26477566     0.36400
C1264       C  0.61994147  0.18183151  0.34691519     0.37100
N1265       N  0.55368522  0.19092157  0.22912051    -0.43700
N1266       N  0.60578415  0.24625351  0.31853313    -0.44100
N1267       N  0.61801055  0.17919167  0.36357199    -0.41500
N1268       N  0.63036284  0.19806019  0.24821336    -0.42900
H1269       H  0.65356562  0.17732571  0.28785078     0.13200
H1270       H  0.59405530  0.19888414  0.32356922     0.09700
H1271       H  0.58709930  0.18448040  0.26565353     0.10800
H1272       H  0.56986855  0.25263584  0.28393932     0.16600
C1273       C  0.71176409  0.22335947  0.42920779    -0.01600
C1274       C  0.72116590  0.21519258  0.41271779     0.07000
C1275       C  0.74146065  0.21756825  0.41051390    -0.07600
C1276       C  0.75245691  0.22764750  0.42459189     0.04400
C1277       C  0.74305208  0.23569394  0.44118324    -0.14800
C1278       C  0.72270538  0.23360189  0.44318291    -0.08100
C1279       C  0.71009660  0.20421544  0.39755016     0.05400
C1280       C  0.69558469  0.21390302  0.38671651    -0.09200
C1281       C  0.68527355  0.20425205  0.37182872     0.00400
C1282       C  0.68955162  0.18438878  0.36748104     0.00200
C1283       C  0.70384900  0.17468289  0.37871964    -0.12800
C1284       C  0.71408475  0.18437384  0.39356933     0.00700
C1285       C  0.67107057  0.21547855  0.36087737     0.40000
C1286       C  0.72852681  0.17359341  0.40463965     0.36600
C1287       C  0.69100963  0.22094052  0.43237532     0.36400
C1288       C  0.77316273  0.23024864  0.42121085     0.37100
N1289       N  0.65968533  0.22451168  0.35214562    -0.43700
N1290       N  0.74013628  0.16499112  0.41349801    -0.44100
N1291       N  0.78973889  0.23237751  0.41843633    -0.41500
N1292       N  0.67437351  0.21897544  0.43487965    -0.42900
H1293       H  0.71536961  0.23970514  0.45590016     0.13200
H1294       H  0.74869648  0.21161453  0.39767008     0.09700
H1295       H  0.69257211  0.22921938  0.38967923     0.10800
H1296       H  0.70721464  0.15943507  0.37582442     0.16600
C1297       C  0.31791612  0.62522415  0.17045389    -0.01600
C1298       C  0.32840126  0.60921892  0.17815762     0.07000
C1299       C  0.34884089  0.60869147  0.17630193    -0.07600
C1300       C  0.35892308  0.62388108  0.16688748     0.04400
C1301       C  0.34842839  0.63994941  0.15916741    -0.14800
C1302       C  0.32794933  0.64035739  0.16097040    -0.10500
C1303       C  0.31830544  0.59288166  0.18824107     0.05400
C1304       C  0.30661825  0.58005077  0.17727822    -0.09200
C1305       C  0.29702959  0.56428619  0.18628593     0.00400
C1306       C  0.29899458  0.56129665  0.20673625     0.00200
C1307       C  0.31076556  0.57424793  0.21760527    -0.12800
C1308       C  0.32038748  0.58989899  0.20855322     0.00700
C1309       C  0.28602352  0.55103727  0.17402492     0.40000
C1310       C  0.33205691  0.60293343  0.22043364     0.36600
C1311       C  0.29693796  0.62666595  0.17257260     0.36400
C1312       C  0.37984889  0.62213013  0.16452534     0.37100
N1313       N  0.27729803  0.54039468  0.16413453    -0.43700
N1314       N  0.34143855  0.61339269  0.22990477    -0.44100
N1315       N  0.39661258  0.62067524  0.16258037    -0.41500
N1316       N  0.28013373  0.62785773  0.17432219    -0.42900
H1317       H  0.31976645  0.65268825  0.15518233     0.13200
H1318       H  0.35689001  0.59626896  0.18207708     0.09700
H1319       H  0.30520426  0.58224514  0.16158273     0.10800
H1320       H  0.31232016  0.57229359  0.23331440     0.16600
C1321       C  0.46737052  0.71296760  0.18549901    -0.01600
C1322       C  0.44994782  0.72207369  0.17913447     0.07000
C1323       C  0.44774652  0.74237902  0.18159184    -0.07600
C1324       C  0.46263353  0.75363131  0.19005952     0.04400
C1325       C  0.47995530  0.74445685  0.19658372    -0.14800
C1326       C  0.48208418  0.72415001  0.19433621    -0.08100
C1327       C  0.43365778  0.71064257  0.17032912     0.05400
C1328       C  0.42490658  0.69566164  0.18131472    -0.09200
C1329       C  0.40911375  0.68490107  0.17389262     0.00400
C1330       C  0.40136194  0.68941537  0.15508250     0.00200
C1331       C  0.41055499  0.70425286  0.14400383    -0.12800
C1332       C  0.42654148  0.71472415  0.15138458     0.00700
C1333       C  0.40131921  0.66956509  0.18622247     0.40000
C1334       C  0.43565528  0.72935546  0.13909038     0.36600
C1335       C  0.47072114  0.69229506  0.18258233     0.36400
C1336       C  0.45946898  0.77439741  0.19259081     0.37100
N1337       N  0.39530227  0.65726400  0.19624061    -0.43700
N1338       N  0.44302255  0.74107247  0.12928339    -0.44100
N1339       N  0.45694742  0.79103301  0.19463884    -0.41500
N1340       N  0.47338192  0.67572957  0.18019412    -0.42900
H1341       H  0.49545948  0.71706537  0.19914993     0.13200
H1342       H  0.43427177  0.74942174  0.17701202     0.09700
H1343       H  0.43036304  0.69247790  0.19591528     0.10800
H1344       H  0.40526533  0.70782819  0.12944986     0.16600
C1345       C  0.57816502  0.31913030  0.19173952    -0.01600
C1346       C  0.59281446  0.30859364  0.18170811     0.07000
C1347       C  0.59235826  0.28807922  0.18178970    -0.07600
C1348       C  0.57777495  0.27794370  0.19197512     0.04400
C1349       C  0.56325504  0.28845352  0.20233386    -0.14800
C1350       C  0.56359496  0.30902003  0.20202353    -0.08100
C1351       C  0.60976644  0.31852243  0.17255705     0.05400
C1352       C  0.62282464  0.32865077  0.18470422    -0.09200
C1353       C  0.63988515  0.33701906  0.17710583     0.00400
C1354       C  0.64405458  0.33539466  0.15683513     0.00200
C1355       C  0.63088681  0.32522310  0.14470475    -0.12800
C1356       C  0.61386242  0.31681525  0.15238179     0.00700
C1357       C  0.65319863  0.34622837  0.19071323     0.40000
C1358       C  0.60071541  0.30672023  0.13925690     0.36600
C1359       C  0.57774441  0.34027672  0.19155847     0.36400
C1360       C  0.57887477  0.25682560  0.19258062     0.37100
N1361       N  0.66378773  0.35350047  0.20176673    -0.43700
N1362       N  0.59021325  0.29862695  0.12870500    -0.44100
N1363       N  0.57985490  0.23991176  0.19312281    -0.41500
N1364       N  0.57739595  0.35722253  0.19138309    -0.42900
H1365       H  0.55241470  0.31721076  0.20978450     0.13200
H1366       H  0.60384442  0.27996342  0.17439932     0.09700
H1367       H  0.61989862  0.32956578  0.20031921     0.10800
H1368       H  0.63377947  0.32397463  0.12911475     0.16600
C1369       C  0.70410930  0.40609724  0.18305060    -0.01600
C1370       C  0.70762649  0.42264292  0.17112598     0.07000
C1371       C  0.70406417  0.42150286  0.15089693    -0.07600
C1372       C  0.69692900  0.40426141  0.14248185     0.04400
C1373       C  0.69299214  0.38789178  0.15448332    -0.14800
C1374       C  0.69652619  0.38902566  0.17470463    -0.08100
C1375       C  0.71635518  0.44077372  0.17919356     0.05400
C1376       C  0.73450233  0.44690287  0.17189889    -0.09200
C1377       C  0.74418908  0.46299965  0.17997021     0.00400
C1378       C  0.73581439  0.47309874  0.19609532     0.00200
C1379       C  0.71708565  0.46748646  0.20265005    -0.12800
C1380       C  0.70723117  0.45167619  0.19416364     0.00700
C1381       C  0.76274308  0.46844142  0.17139701     0.40000
C1382       C  0.68769666  0.44708809  0.20085414     0.36600
C1383       C  0.70898575  0.40597502  0.20366618     0.36400
C1384       C  0.69325961  0.40393395  0.12163089     0.37100
N1385       N  0.77753649  0.47281576  0.16437296    -0.43700
N1386       N  0.67203983  0.44341598  0.20619456    -0.44100
N1387       N  0.69033088  0.40364950  0.10491913    -0.41500
N1388       N  0.71290388  0.40592992  0.22017711    -0.42900
H1389       H  0.69385485  0.37634752  0.18391336     0.13200
H1390       H  0.70694557  0.43412442  0.14166177     0.09700
H1391       H  0.74133742  0.43878044  0.16006056     0.10800
H1392       H  0.71007799  0.47538954  0.21451948     0.16600
C1393       C  0.83581188  0.22652705  0.03031475    -0.01600
C1394       C  0.82710932  0.21426066  0.04447373     0.07000
C1395       C  0.80670662  0.21210431  0.04476780    -0.07600
C1396       C  0.79486999  0.22234633  0.03152727     0.04400
C1397       C  0.80353187  0.23499428  0.01756050    -0.14800
C1398       C  0.82402745  0.23674835  0.01703499    -0.08100
C1399       C  0.83869895  0.20537245  0.06052695     0.05400
C1400       C  0.84800124  0.21788534  0.07382911    -0.09200
C1401       C  0.85758033  0.21050468  0.09033824     0.00400
C1402       C  0.85763375  0.19004797  0.09401301     0.00200
C1403       C  0.84866471  0.17750425  0.08033935    -0.12800
C1404       C  0.83942573  0.18498299  0.06359698     0.00700
C1405       C  0.86646784  0.22451266  0.10347077     0.40000
C1406       C  0.83118850  0.17149943  0.04954851     0.36600
C1407       C  0.85678899  0.22887831  0.02920108     0.36400
C1408       C  0.77390671  0.22048911  0.03347811     0.37100
N1409       N  0.87365701  0.23582389  0.11384864    -0.43700
N1410       N  0.82474693  0.16068655  0.03819670    -0.44100
N1411       N  0.75711035  0.21904359  0.03512654    -0.41500
N1412       N  0.87359909  0.23076726  0.02835242    -0.42900
H1413       H  0.83089829  0.24617944  0.00623058     0.13200
H1414       H  0.79996508  0.20297111  0.05591115     0.09700
H1415       H  0.84735061  0.23360216  0.07152582     0.10800
H1416       H  0.84892724  0.16179216  0.08267158     0.16600
C1417       C  0.71162376  0.30237959  0.03858118    -0.01600
C1418       C  0.72202799  0.31095588  0.05418860     0.07000
C1419       C  0.74251484  0.31079162  0.05402548    -0.07600
C1420       C  0.75278465  0.30221904  0.03852783     0.04400
C1421       C  0.74243010  0.29378047  0.02270603    -0.14800
C1422       C  0.72186539  0.29384494  0.02299228    -0.08100
C1423       C  0.71191991  0.31971907  0.07119772     0.05400
C1424       C  0.70345336  0.30731416  0.08518931    -0.09200
C1425       C  0.69486749  0.31495438  0.10217081     0.00400
C1426       C  0.69446932  0.33546687  0.10517639     0.00200
C1427       C  0.70296424  0.34781912  0.09102598    -0.12800
C1428       C  0.71167139  0.34011202  0.07415478     0.00700
C1429       C  0.68766438  0.30132601  0.11668985     0.40000
C1430       C  0.72019223  0.35335576  0.06000512     0.36600
C1431       C  0.69049781  0.30243158  0.03818123     0.36400
C1432       C  0.77386449  0.30131242  0.03982076     0.37100
N1433       N  0.68199893  0.29038631  0.12835971    -0.43700
N1434       N  0.72704366  0.36392174  0.04863609    -0.44100
N1435       N  0.79074451  0.30046852  0.04091675    -0.41500
N1436       N  0.67356450  0.30251008  0.03788185    -0.42900
H1437       H  0.71378654  0.28736184  0.01094422     0.13200
H1438       H  0.75048062  0.31710090  0.06624678     0.09700
H1439       H  0.70401792  0.29158089  0.08304226     0.10800
H1440       H  0.70274169  0.36356222  0.09308515     0.16600
C1441       C  0.72300698  0.33966514  0.87460797    -0.01600
C1442       C  0.71307623  0.32706785  0.88758323     0.07000
C1443       C  0.69280038  0.32473020  0.88586384    -0.07600
C1444       C  0.68227514  0.33473041  0.87139714     0.04400
C1445       C  0.69219895  0.34723321  0.85811421    -0.14800
C1446       C  0.71256239  0.34960616  0.86002934    -0.08100
C1447       C  0.72341631  0.31665112  0.90352264     0.05400
C1448       C  0.73010558  0.32739680  0.91968905    -0.09200
C1449       C  0.73935473  0.31802507  0.93541311     0.00400
C1450       C  0.74194459  0.29751026  0.93506075     0.00200
C1451       C  0.73513945  0.28677919  0.91887876    -0.12800
C1452       C  0.72601964  0.29618845  0.90310952     0.00700
C1453       C  0.74524744  0.32966427  0.95206232     0.40000
C1454       C  0.71988945  0.28466666  0.88645746     0.36600
C1455       C  0.74393917  0.34230018  0.87577450     0.36400
C1456       C  0.66126527  0.33248647  0.87124911     0.37100
N1457       N  0.74987225  0.33900385  0.96543518    -0.43700
N1458       N  0.71504796  0.27544245  0.87308059    -0.44100
N1459       N  0.64443232  0.33062934  0.87138989    -0.41500
N1460       N  0.76071781  0.34439416  0.87672258    -0.42900
H1461       H  0.72043585  0.35901844  0.84992229     0.13200
H1462       H  0.68514179  0.31526644  0.89610100     0.09700
H1463       H  0.72785814  0.34311954  0.92010123     0.10800
H1464       H  0.73731753  0.27104876  0.91837310     0.16600
C1465       C  0.60943241  0.33123797  0.81290228    -0.01600
C1466       C  0.60735102  0.32991519  0.79237965     0.07000
C1467       C  0.62141657  0.33860491  0.78017765    -0.07600
C1468       C  0.63768738  0.34816301  0.78808382     0.04400
C1469       C  0.64003670  0.34911601  0.80863575    -0.14800
C1470       C  0.62577727  0.34066236  0.82082819    -0.08100
C1471       C  0.59078833  0.31947200  0.78310254     0.05400
C1472       C  0.57807975  0.33005196  0.77092388    -0.09200
C1473       C  0.56319203  0.32059735  0.76052784     0.00400
C1474       C  0.56090965  0.30008425  0.76222178     0.00200
C1475       C  0.57335491  0.28961080  0.77484793    -0.12800
C1476       C  0.58831230  0.29906537  0.78511628     0.00700
C1477       C  0.55029613  0.33239724  0.74861096     0.40000
C1478       C  0.60144412  0.28737495  0.79689009     0.36600
C1479       C  0.59488204  0.32335226  0.82609271     0.36400
C1480       C  0.65215181  0.35592192  0.77473058     0.37100
N1481       N  0.53996383  0.34188991  0.73909409    -0.43700
N1482       N  0.61191320  0.27799638  0.80636893    -0.44100
N1483       N  0.66368109  0.36202546  0.76389325    -0.41500
N1484       N  0.58327812  0.31698480  0.83669673    -0.42900
H1485       H  0.62729748  0.34162042  0.83661372     0.13200
H1486       H  0.61984775  0.33756320  0.76437880     0.09700
H1487       H  0.57993553  0.34576408  0.76942513     0.10800
H1488       H  0.57182199  0.27385572  0.77622785     0.16600
C1489       C  0.69684207  0.42197276  0.78290325    -0.01600
C1490       C  0.70563539  0.43616369  0.79505528     0.07000
C1491       C  0.70522166  0.43363839  0.81546135    -0.07600
C1492       C  0.69679515  0.41691151  0.82383300     0.04400
C1493       C  0.68844457  0.40240062  0.81163987    -0.14800
C1494       C  0.68824482  0.40535562  0.79125424    -0.08100
C1495       C  0.71612063  0.45322005  0.78662339     0.05400
C1496       C  0.70564773  0.46709575  0.77569483    -0.09200
C1497       C  0.71532278  0.48244516  0.76612606     0.00400
C1498       C  0.73595041  0.48403274  0.76740820     0.00200
C1499       C  0.74625695  0.47061164  0.77912908    -0.12800
C1500       C  0.73655083  0.45526563  0.78864048     0.00700
C1501       C  0.70364301  0.49646427  0.75540620     0.40000
C1502       C  0.74796801  0.44125452  0.79963676     0.36600
C1503       C  0.69726333  0.42369612  0.76179148     0.36400
C1504       C  0.69657015  0.41526458  0.84494606     0.37100
N1505       N  0.69426692  0.50771096  0.74685635    -0.43700
N1506       N  0.75704173  0.42999381  0.80848365    -0.44100
N1507       N  0.69638942  0.41396430  0.86186935    -0.41500
N1508       N  0.69763717  0.42509418  0.74487972    -0.42900
H1509       H  0.68194082  0.39433310  0.78173521     0.13200
H1510       H  0.71174086  0.44467649  0.82484305     0.09700
H1511       H  0.68988020  0.46574102  0.77443123     0.10800
H1512       H  0.76205132  0.47165096  0.78029922     0.16600
C1513       C  0.81214189  0.20784872  0.91992141    -0.01600
C1514       C  0.81946677  0.21777014  0.90340512     0.07000
C1515       C  0.81809990  0.23821684  0.90226112    -0.07600
C1516       C  0.80917919  0.24888899  0.91727645     0.04400
C1517       C  0.80141062  0.23891626  0.93366269    -0.14800
C1518       C  0.80307163  0.21845640  0.93486276    -0.08100
C1519       C  0.82827782  0.20708643  0.88689224     0.05400
C1520       C  0.81600506  0.19709974  0.87383954    -0.09200
C1521       C  0.82368570  0.18799853  0.85716410     0.00400
C1522       C  0.84403531  0.18890405  0.85349673     0.00200
C1523       C  0.85627897  0.19851553  0.86696179    -0.12800
C1524       C  0.84856549  0.20753596  0.88359292     0.00700
C1525       C  0.81022620  0.17891551  0.84361290     0.40000
C1526       C  0.86167854  0.21715108  0.89711052     0.36600
C1527       C  0.81402739  0.18687856  0.92190273     0.36400
C1528       C  0.80727667  0.26984019  0.91500695     0.37100
N1529       N  0.79939549  0.17167453  0.83277273    -0.43700
N1530       N  0.87214299  0.22482054  0.90800982    -0.44100
N1531       N  0.80571353  0.28661864  0.91315029    -0.41500
N1532       N  0.81563613  0.17008062  0.92349427    -0.42900
H1533       H  0.79732152  0.21075815  0.94754292     0.13200
H1534       H  0.82373028  0.24577581  0.88944277     0.09700
H1535       H  0.80034091  0.19689124  0.87644367     0.10800
H1536       H  0.87194010  0.19911418  0.86441714     0.16600
C1537       C  0.11376422  0.20249493  0.78922080    -0.01600
C1538       C  0.10136756  0.21558590  0.79922308     0.07000
C1539       C  0.10451420  0.21933115  0.81917498    -0.07600
C1540       C  0.12020258  0.21075124  0.82913321     0.04400
C1541       C  0.13299836  0.19794500  0.81902225    -0.14800
C1542       C  0.12935866  0.19380521  0.79914022    -0.08100
C1543       C  0.08570408  0.22628614  0.78882689     0.05400
C1544       C  0.07039926  0.21573794  0.78008616    -0.09200
C1545       C  0.05610253  0.22535978  0.76902017     0.00400
C1546       C  0.05718431  0.24585338  0.76655362     0.00200
C1547       C  0.07201136  0.25643631  0.77599121    -0.12800
C1548       C  0.08625216  0.24685347  0.78704288     0.00700
C1549       C  0.04006196  0.21405013  0.76115540     0.40000
C1550       C  0.10160498  0.25840027  0.79587783     0.36600
C1551       C  0.11122121  0.19827025  0.76861575     0.36400
C1552       C  0.12248243  0.21521379  0.84970071     0.37100
N1553       N  0.02712051  0.20498816  0.75503737    -0.43700
N1554       N  0.11384264  0.26766779  0.80304118    -0.44100
N1555       N  0.12426480  0.21887619  0.86617295    -0.41500
N1556       N  0.10915250  0.19483094  0.75212945    -0.42900
H1557       H  0.13899319  0.18407396  0.79109377     0.13200
H1558       H  0.09478312  0.22922329  0.82691619     0.09700
H1559       H  0.06969435  0.19996535  0.78188384     0.10800
H1560       H  0.07275690  0.27222489  0.77432117     0.16600
C1561       C  0.08950903  0.30459221  0.68205555    -0.01600
C1562       C  0.09149315  0.32515024  0.68247281     0.07000
C1563       C  0.07878039  0.33618771  0.69430552    -0.07600
C1564       C  0.06437318  0.32707173  0.70576135     0.04400
C1565       C  0.06230658  0.30646604  0.70522374    -0.14800
C1566       C  0.07502606  0.29551028  0.69329853    -0.08100
C1567       C  0.10697043  0.33524163  0.67091969     0.05400
C1568       C  0.10776159  0.33255601  0.65050322    -0.09200
C1569       C  0.12297313  0.34061203  0.63931963     0.00400
C1570       C  0.13770581  0.35178231  0.64859653     0.00200
C1571       C  0.13642463  0.35506629  0.66892005    -0.12800
C1572       C  0.12130329  0.34694309  0.68007391     0.00700
C1573       C  0.12273480  0.33763607  0.61835849     0.40000
C1574       C  0.12119550  0.35038300  0.70097483     0.36600
C1575       C  0.10233032  0.29240249  0.67044570     0.36400
C1576       C  0.05157990  0.33931698  0.71731802     0.37100
N1577       N  0.12253265  0.33528972  0.60155151    -0.43700
N1578       N  0.12102337  0.35326088  0.71769782    -0.44100
N1579       N  0.04136586  0.34917454  0.72658381    -0.41500
N1580       N  0.11251591  0.28263339  0.66105792    -0.42900
H1581       H  0.07372333  0.27968482  0.69277614     0.13200
H1582       H  0.08005941  0.35202098  0.69449711     0.09700
H1583       H  0.09649575  0.32399057  0.64330279     0.10800
H1584       H  0.14756127  0.36366092  0.67628570     0.16600
C1585       C  0.95573237  0.23549452  0.78810539    -0.01600
C1586       C  0.94225125  0.22507726  0.77647276     0.07000
C1587       C  0.94415703  0.22524657  0.75604167    -0.07600
C1588       C  0.95933399  0.23555228  0.74703499     0.04400
C1589       C  0.97280087  0.24622338  0.75863844    -0.14800
C1590       C  0.97075730  0.24612699  0.77912645    -0.08100
C1591       C  0.92562863  0.21441245  0.78525455     0.05400
C1592       C  0.91126928  0.22510991  0.79523190    -0.09200
C1593       C  0.89506577  0.21573642  0.80344885     0.00400
C1594       C  0.89305219  0.19517585  0.80161451     0.00200
C1595       C  0.90737099  0.18455531  0.79134879    -0.12800
C1596       C  0.92362684  0.19398002  0.78326481     0.00700
C1597       C  0.88054094  0.22774681  0.81306873     0.40000
C1598       C  0.93832201  0.18235334  0.77346283     0.36600
C1599       C  0.95477461  0.23492431  0.80925527     0.36400
C1600       C  0.96032226  0.23527980  0.72586623     0.37100
N1601       N  0.86895351  0.23740748  0.82079581    -0.43700
N1602       N  0.95012521  0.17305975  0.76562140    -0.44100
N1603       N  0.96113455  0.23497018  0.70891399    -0.41500
N1604       N  0.95399694  0.23433566  0.82619958    -0.42900
H1605       H  0.98116499  0.25401124  0.78816460     0.13200
H1606       H  0.93363075  0.21738721  0.74710650     0.09700
H1607       H  0.91267441  0.24089435  0.79643310     0.10800
H1608       H  0.90608339  0.16878421  0.78995321     0.16600
C1609       C  0.94566333  0.32470500  0.70451622    -0.01600
C1610       C  0.94479051  0.32569023  0.68391140     0.07000
C1611       C  0.95986122  0.31742301  0.67266046    -0.07600
C1612       C  0.97564112  0.30797492  0.68168895     0.04400
C1613       C  0.97641649  0.30679801  0.70234259    -0.14800
C1614       C  0.96145248  0.31539807  0.71353829    -0.08100
C1615       C  0.92822857  0.33527280  0.67382863     0.05400
C1616       C  0.92580467  0.35552584  0.67574602    -0.09200
C1617       C  0.91013614  0.36513755  0.66672192     0.00400
C1618       C  0.89673237  0.35438349  0.65506906     0.00200
C1619       C  0.89938288  0.33402593  0.65315526    -0.12800
C1620       C  0.91478228  0.32442700  0.66262675     0.00700
C1621       C  0.90848368  0.38596997  0.66980049     0.40000
C1622       C  0.91596670  0.30333816  0.66149394     0.36600
C1623       C  0.93020058  0.33250372  0.71666813     0.36400
C1624       C  0.99108129  0.30023093  0.66948585     0.37100
N1625       N  0.90749946  0.40262225  0.67275706    -0.43700
N1626       N  0.91688095  0.28642841  0.66080330    -0.44100
N1627       N  0.00348963  0.29408107  0.65970987    -0.41500
N1628       N  0.91780482  0.33869678  0.72643070    -0.42900
H1629       H  0.96181268  0.31439826  0.72941596     0.13200
H1630       H  0.95927442  0.31840883  0.65679224     0.09700
H1631       H  0.93616027  0.36382387  0.68448603     0.10800
H1632       H  0.88903189  0.32541769  0.64473954     0.16600
C1633       C  0.85104816  0.33317349  0.57395289    -0.01600
C1634       C  0.83068484  0.33283741  0.57054809     0.07000
C1635       C  0.81822370  0.34256626  0.58367049    -0.07600
C1636       C  0.82563500  0.35239718  0.60006979     0.04400
C1637       C  0.84604019  0.35247283  0.60373460    -0.14800
C1638       C  0.85850762  0.34283129  0.59045927    -0.08100
C1639       C  0.82186523  0.32140956  0.55420468     0.05400
C1640       C  0.82482369  0.30108363  0.55359107    -0.09200
C1641       C  0.81550992  0.28943845  0.53949503     0.00400
C1642       C  0.80280444  0.29814491  0.52560943     0.00200
C1643       C  0.80004816  0.31855603  0.52613215    -0.12800
C1644       C  0.80946384  0.33018070  0.54017889     0.00700
C1645       C  0.81850959  0.26852547  0.54038739     0.40000
C1646       C  0.80630641  0.35109491  0.53979470     0.36600
C1647       C  0.86461092  0.32399213  0.56056918     0.36400
C1648       C  0.81175950  0.36143246  0.61324021     0.37100
N1649       N  0.82092698  0.25176850  0.54121261    -0.43700
N1650       N  0.80374997  0.36784901  0.53950441    -0.44100
N1651       N  0.80055378  0.36865580  0.62371357    -0.41500
N1652       N  0.87552386  0.31666396  0.54986405    -0.42900
H1653       H  0.87419225  0.34294105  0.59288602     0.13200
H1654       H  0.80252942  0.34207698  0.58132529     0.09700
H1655       H  0.83403910  0.29419831  0.56456089     0.10800
H1656       H  0.79054346  0.32550947  0.51546225     0.16600
C1657       C  0.81472825  0.41540003  0.67120745    -0.01600
C1658       C  0.82403289  0.43356024  0.67422513     0.07000
C1659       C  0.84315559  0.43646389  0.66737462    -0.07600
C1660       C  0.85310528  0.42146164  0.65758668     0.04400
C1661       C  0.84389869  0.40320112  0.65480408    -0.14800
C1662       C  0.82468787  0.40039085  0.66147517    -0.08100
C1663       C  0.81412836  0.44962038  0.68478055     0.05400
C1664       C  0.81934262  0.45328343  0.70425841    -0.09200
C1665       C  0.81006094  0.46802844  0.71502287     0.00400
C1666       C  0.79528837  0.47961057  0.70611021     0.00200
C1667       C  0.79018369  0.47581694  0.68646935    -0.12800
C1668       C  0.79947957  0.46098710  0.67580673     0.00700
C1669       C  0.81572792  0.47040891  0.73528410     0.40000
C1670       C  0.79398257  0.45779383  0.65561338     0.36600
C1671       C  0.79516542  0.41176902  0.67835445     0.36400
C1672       C  0.87227273  0.42545985  0.64963621     0.37100
N1673       N  0.82030043  0.47224945  0.75151969    -0.43700
N1674       N  0.78965433  0.45516146  0.63942283    -0.44100
N1675       N  0.88752039  0.42881476  0.64304670    -0.41500
N1676       N  0.77948739  0.40891438  0.68411142    -0.42900
H1677       H  0.81761268  0.38632212  0.65941217     0.13200
H1678       H  0.85020916  0.45053108  0.66952779     0.09700
H1679       H  0.83055794  0.44437672  0.71114419     0.10800
H1680       H  0.77903107  0.48456393  0.67930778     0.16600
C1681       C  0.21684618  0.78714491  0.05271731    -0.01600
C1682       C  0.21601543  0.80776862  0.05355027     0.07000
C1683       C  0.22497416  0.81882553  0.03871430    -0.07600
C1684       C  0.23490392  0.80967211  0.02327110     0.04400
C1685       C  0.23606068  0.78901476  0.02257485    -0.14800
C1686       C  0.22666305  0.77796522  0.03721482    -0.08100
C1687       C  0.20673104  0.81816112  0.07023147     0.05400
C1688       C  0.21860276  0.82931856  0.08272030    -0.09200
C1689       C  0.21064094  0.83921479  0.09882942     0.00400
C1690       C  0.19031383  0.83802060  0.10265425     0.00200
C1691       C  0.17846523  0.82686412  0.09003625    -0.12800
C1692       C  0.18644546  0.81714177  0.07383750     0.00700
C1693       C  0.22384515  0.84980071  0.11150944     0.40000
C1694       C  0.17346840  0.80668484  0.06082732     0.36600
C1695       C  0.20848573  0.77514370  0.06803357     0.36400
C1696       C  0.24329268  0.82181769  0.00809458     0.37100
N1697       N  0.23447665  0.85826766  0.12163270    -0.43700
N1698       N  0.16304634  0.79832730  0.05040320    -0.44100
N1699       N  0.24996473  0.83153561  0.99588919    -0.41500
N1700       N  0.20176007  0.76556551  0.08032040    -0.42900
H1701       H  0.22754785  0.76210627  0.03692073     0.13200
H1702       H  0.22424466  0.83468740  0.03926398     0.09700
H1703       H  0.23422751  0.83008161  0.07998372     0.10800
H1704       H  0.16282421  0.82600892  0.09261580     0.16600
C1705       C  0.30683487  0.70239771  0.04338147    -0.01600
C1706       C  0.31900928  0.71299210  0.05622085     0.07000
C1707       C  0.32145616  0.73315489  0.05350051    -0.07600
C1708       C  0.31163746  0.74301828  0.03846836     0.04400
C1709       C  0.29906782  0.73253884  0.02570333    -0.14800
C1710       C  0.29692517  0.71220907  0.02834370    -0.08100
C1711       C  0.32886817  0.70358572  0.07306921     0.05400
C1712       C  0.34931895  0.70195217  0.07298826    -0.09200
C1713       C  0.35924870  0.69404515  0.08911128     0.00400
C1714       C  0.34858279  0.68769732  0.10569553     0.00200
C1715       C  0.32807888  0.68923112  0.10563330    -0.12800
C1716       C  0.31820146  0.69723870  0.08957659     0.00700
C1717       C  0.38024402  0.69195498  0.08793976     0.40000
C1718       C  0.29720119  0.69943556  0.09061300     0.36600
C1719       C  0.30450755  0.68145422  0.04522088     0.36400
C1720       C  0.31426936  0.76396318  0.03710788     0.37100
N1721       N  0.39706472  0.69021909  0.08697467    -0.43700
N1722       N  0.28038011  0.70124632  0.09140657    -0.44100
N1723       N  0.31643321  0.78074567  0.03609200    -0.41500
N1724       N  0.30265166  0.66466688  0.04666538    -0.42900
H1725       H  0.28759179  0.70389127  0.01855129     0.13200
H1726       H  0.33079051  0.74128714  0.06346205     0.09700
H1727       H  0.35751172  0.70685732  0.06026800     0.10800
H1728       H  0.31976008  0.68453797  0.11835300     0.16600
C1729       C  0.33781563  0.71209102  0.87658242    -0.01600
C1730       C  0.33454489  0.70157450  0.89411818     0.07000
C1731       C  0.34003834  0.68177614  0.89515564    -0.07600
C1732       C  0.34882093  0.67247800  0.87909939     0.04400
C1733       C  0.35250336  0.68317127  0.86179259    -0.14800
C1734       C  0.34703040  0.70293023  0.86075691    -0.08100
C1735       C  0.32418180  0.71059826  0.91097653     0.05400
C1736       C  0.30627714  0.70258574  0.91691630    -0.09200
C1737       C  0.29509699  0.71142404  0.93164436     0.00400
C1738       C  0.30164236  0.72905730  0.94050514     0.00200
C1739       C  0.32011080  0.73649077  0.93508837    -0.12800
C1740       C  0.33147614  0.72727060  0.92071151     0.00700
C1741       C  0.27702503  0.70191197  0.93711806     0.40000
C1742       C  0.35072303  0.73493066  0.91644570     0.36600
C1743       C  0.33090706  0.73193235  0.87408524     0.36400
C1744       C  0.35421823  0.65210463  0.88081768     0.37100
N1745       N  0.26263412  0.69413042  0.94154078    -0.43700
N1746       N  0.36617616  0.74098924  0.91304322    -0.44100
N1747       N  0.35853142  0.63576563  0.88213248    -0.41500
N1748       N  0.32531703  0.74780836  0.87208515    -0.42900
H1749       H  0.34932341  0.71103510  0.84726676     0.13200
H1750       H  0.33732210  0.67355731  0.90850174     0.09700
H1751       H  0.30082851  0.68950529  0.90972626     0.10800
H1752       H  0.32577754  0.74956779  0.94208311     0.16600
C1753       C  0.32052558  0.61591024  0.80377718    -0.01600
C1754       C  0.33017247  0.60356218  0.79033426     0.07000
C1755       C  0.35033894  0.60576589  0.78732778    -0.07600
C1756       C  0.36093196  0.62030162  0.79714181     0.04400
C1757       C  0.35120090  0.63318961  0.81015111    -0.14800
C1758       C  0.33106231  0.63047392  0.81357700    -0.08100
C1759       C  0.31939387  0.58908434  0.77829994     0.05400
C1760       C  0.31900504  0.59166153  0.75788624    -0.09200
C1761       C  0.30888447  0.57856982  0.74582200     0.00400
C1762       C  0.29871285  0.56266800  0.75426560     0.00200
C1763       C  0.29920264  0.56004092  0.77469415    -0.12800
C1764       C  0.30968034  0.57290461  0.78670256     0.00700
C1765       C  0.30862264  0.58219413  0.72495367     0.40000
C1766       C  0.31079011  0.56884842  0.80746098     0.36600
C1767       C  0.29970050  0.61449749  0.80715974     0.36400
C1768       C  0.38177662  0.62118292  0.79383926     0.37100
N1769       N  0.30842725  0.58508428  0.70822800    -0.43700
N1770       N  0.31169966  0.56556198  0.82408847    -0.44100
N1771       N  0.39848482  0.62157385  0.79109265    -0.41500
N1772       N  0.28303835  0.61331248  0.80997723    -0.42900
H1773       H  0.32329238  0.64020035  0.82344556     0.13200
H1774       H  0.35780741  0.59612093  0.77713661     0.09700
H1775       H  0.32651136  0.60407614  0.75138685     0.10800
H1776       H  0.29172541  0.54764125  0.78125472     0.16600
C1777       C  0.42842530  0.68399289  0.78568168    -0.01600
C1778       C  0.43250187  0.70393818  0.78882787     0.07000
C1779       C  0.42086258  0.71471079  0.80178588    -0.07600
C1780       C  0.40507751  0.70602165  0.81150112     0.04400
C1781       C  0.40087255  0.68587823  0.80853373    -0.14800
C1782       C  0.41278190  0.67512663  0.79556101    -0.08100
C1783       C  0.44790019  0.71441042  0.77777554     0.05400
C1784       C  0.44466660  0.71857206  0.75791670    -0.09200
C1785       C  0.45787219  0.73012057  0.74734006     0.00400
C1786       C  0.47450685  0.73791705  0.75679688     0.00200
C1787       C  0.47783608  0.73357552  0.77664083    -0.12800
C1788       C  0.46479585  0.72169021  0.78710438     0.00700
C1789       C  0.45357013  0.73449039  0.72706727     0.40000
C1790       C  0.46923764  0.71670185  0.80719785     0.36600
C1791       C  0.44018663  0.67237221  0.77249263     0.36400
C1792       C  0.39305515  0.71858344  0.82354515     0.37100
N1793       N  0.45015808  0.73802656  0.71082370    -0.43700
N1794       N  0.47288045  0.71251779  0.82323658    -0.44100
N1795       N  0.38352707  0.72885695  0.83308447    -0.41500
N1796       N  0.44963428  0.66308762  0.76191346    -0.42900
H1797       H  0.40993276  0.65972510  0.79310884     0.13200
H1798       H  0.42382682  0.73018677  0.80387942     0.09700
H1799       H  0.43155461  0.71312962  0.75080210     0.10800
H1800       H  0.49080971  0.73918817  0.78385976     0.16600
C1801       C  0.19634271  0.80649888  0.87568486    -0.01600
C1802       C  0.20676936  0.81646008  0.89045693     0.07000
C1803       C  0.20767503  0.83697566  0.88999087    -0.07600
C1804       C  0.19819173  0.84766221  0.87524247     0.04400
C1805       C  0.18744929  0.83773472  0.86055099    -0.14800
C1806       C  0.18663688  0.81714545  0.86107278    -0.08100
C1807       C  0.21737902  0.80583247  0.90620993     0.05400
C1808       C  0.23781506  0.80734399  0.90700491    -0.09200
C1809       C  0.24850753  0.79785940  0.92170876     0.00400
C1810       C  0.23866341  0.78666098  0.93614172     0.00200
C1811       C  0.21818320  0.78502254  0.93520462    -0.12800
C1812       C  0.20750840  0.79459098  0.92050162     0.00700
C1813       C  0.26959046  0.79931902  0.92113921     0.40000
C1814       C  0.18642794  0.79313378  0.92071164     0.36600
C1815       C  0.19599050  0.78536734  0.87481874     0.36400
C1816       C  0.19929120  0.86876674  0.87599010     0.37100
N1817       N  0.28648435  0.80044135  0.92064410    -0.43700
N1818       N  0.16953478  0.79193101  0.92083719    -0.44100
N1819       N  0.20022770  0.88567933  0.87662787    -0.41500
N1820       N  0.19575008  0.76843340  0.87413664    -0.42900
H1821       H  0.17873056  0.80927191  0.84976538     0.13200
H1822       H  0.21575964  0.84467223  0.90130046     0.09700
H1823       H  0.24545267  0.81586211  0.89595467     0.10800
H1824       H  0.21043665  0.77659928  0.94624442     0.16600
C1825       C  0.20981610  0.09599509  0.76956047    -0.01600
C1826       C  0.20881205  0.09646197  0.79021899     0.07000
C1827       C  0.21593681  0.08055270  0.80106469    -0.07600
C1828       C  0.22441315  0.06444770  0.79167278     0.04400
C1829       C  0.22579170  0.06409577  0.77099950    -0.14800
C1830       C  0.21815947  0.07982842  0.76013972    -0.08100
C1831       C  0.19990198  0.11319709  0.80074294     0.05400
C1832       C  0.18005794  0.11725207  0.79771878    -0.09200
C1833       C  0.17104793  0.13315249  0.80690688     0.00400
C1834       C  0.18208089  0.14548512  0.81947675     0.00200
C1835       C  0.20187510  0.14096443  0.82290761    -0.12800
C1836       C  0.21081204  0.12500707  0.81368209     0.00700
C1837       C  0.15040583  0.13601950  0.80333038     0.40000
C1838       C  0.23132628  0.12141034  0.81726854     0.36600
C1839       C  0.20298907  0.11221774  0.75778882     0.36400
C1840       C  0.23094963  0.04824797  0.80359097     0.37100
N1841       N  0.13387348  0.13825766  0.80039432    -0.43700
N1842       N  0.24775513  0.11852670  0.82020305    -0.44100
N1843       N  0.23609053  0.03528495  0.81323432    -0.41500
N1844       N  0.19750641  0.12524599  0.74841437    -0.42900
H1845       H  0.21925990  0.07977933  0.74426741     0.13200
H1846       H  0.21477256  0.08070309  0.81693277     0.09700
H1847       H  0.17156451  0.10789277  0.78808725     0.10800
H1848       H  0.21059396  0.15016990  0.83246714     0.16600
C1849       C  0.32701214  0.10704466  0.66414908    -0.01600
C1850       C  0.32360084  0.10809147  0.68451174     0.07000
C1851       C  0.33181717  0.12353673  0.69530592    -0.07600
C1852       C  0.34257605  0.13834482  0.68595249     0.04400
C1853       C  0.34521343  0.13776369  0.66540504    -0.14800
C1854       C  0.33754502  0.12190757  0.65477763    -0.08100
C1855       C  0.31128590  0.09335626  0.69474234     0.05400
C1856       C  0.31997140  0.08100666  0.70862285    -0.09200
C1857       C  0.30902326  0.06656368  0.71824867     0.00400
C1858       C  0.28879072  0.06433500  0.71406750     0.00200
C1859       C  0.28011929  0.07695186  0.70027249    -0.12800
C1860       C  0.29111860  0.09144069  0.69075247     0.00700
C1861       C  0.31923354  0.05391909  0.73181075     0.40000
C1862       C  0.28133685  0.10445772  0.67723334     0.36600
C1863       C  0.31998260  0.09077571  0.65260639     0.36400
C1864       C  0.34968658  0.15449666  0.69759775     0.37100
N1865       N  0.32745869  0.04381748  0.74267180    -0.43700
N1866       N  0.27357231  0.11491271  0.66637083    -0.44100
N1867       N  0.35535681  0.16746863  0.70691646    -0.41500
N1868       N  0.31435254  0.07772810  0.64337285    -0.42900
H1869       H  0.33973712  0.12115974  0.63903732     0.13200
H1870       H  0.32934101  0.12429768  0.71100062     0.09700
H1871       H  0.33547811  0.08247035  0.71170986     0.10800
H1872       H  0.26463348  0.07566735  0.69704925     0.16600
C1873       C  0.17708488  0.92505648  0.79982863    -0.01600
C1874       C  0.19690646  0.92637854  0.79423940     0.07000
C1875       C  0.20953573  0.91066495  0.79822371    -0.07600
C1876       C  0.20267696  0.89369028  0.80749219     0.04400
C1877       C  0.18281497  0.89231116  0.81302694    -0.14800
C1878       C  0.17017111  0.90802520  0.80898440    -0.08100
C1879       C  0.20514540  0.94427896  0.78502904     0.05400
C1880       C  0.21828105  0.95556112  0.79593776    -0.09200
C1881       C  0.22757407  0.97185128  0.78769851     0.00400
C1882       C  0.22394707  0.97709629  0.76787788     0.00200
C1883       C  0.21023791  0.96603404  0.75714149    -0.12800
C1884       C  0.20090852  0.94970722  0.76552878     0.00700
C1885       C  0.24065810  0.98282203  0.80016527     0.40000
C1886       C  0.18763593  0.93829286  0.75367533     0.36600
C1887       C  0.16373860  0.94116007  0.79679993     0.36400
C1888       C  0.21606590  0.87755291  0.81024104     0.37100
N1889       N  0.25116459  0.99148128  0.81025093    -0.43700
N1890       N  0.17696825  0.92910808  0.74424257    -0.44100
N1891       N  0.22673417  0.86455949  0.81236991    -0.41500
N1892       N  0.15303040  0.95407395  0.79441967    -0.42900
H1893       H  0.15489618  0.90707564  0.81320882     0.13200
H1894       H  0.22479126  0.91163783  0.79391852     0.09700
H1895       H  0.22140914  0.95148028  0.81099868     0.10800
H1896       H  0.20723217  0.96974275  0.74197481     0.16600
C1897       C  0.31707513  0.93356009  0.65708680    -0.01600
C1898       C  0.32140241  0.93935771  0.67643106     0.07000
C1899       C  0.33650164  0.92984012  0.68652203    -0.07600
C1900       C  0.34698481  0.91446207  0.67792996     0.04400
C1901       C  0.34182313  0.90761773  0.65893157    -0.14800
C1902       C  0.32702940  0.91772601  0.64865271    -0.08100
C1903       C  0.30964338  0.95443353  0.68689522     0.05400
C1904       C  0.28943206  0.95139315  0.68914664    -0.09200
C1905       C  0.27792831  0.96447634  0.69995125     0.00400
C1906       C  0.28672093  0.98081235  0.70901749     0.00200
C1907       C  0.30691013  0.98387796  0.70682656    -0.12800
C1908       C  0.31836090  0.97099163  0.69571312     0.00700
C1909       C  0.25734193  0.96029849  0.70232531     0.40000
C1910       C  0.33889368  0.97533328  0.69319829     0.36600
C1911       C  0.30278980  0.94393650  0.64544015     0.36400
C1912       C  0.36297401  0.90646999  0.68919510     0.37100
N1913       N  0.24085464  0.95694722  0.70429777    -0.43700
N1914       N  0.35533763  0.97886679  0.69118436    -0.44100
N1915       N  0.37590685  0.90064502  0.69846751    -0.41500
N1916       N  0.29143818  0.95235117  0.63607807    -0.42900
H1917       H  0.32315919  0.91334503  0.63387808     0.13200
H1918       H  0.33998655  0.93432454  0.70137964     0.09700
H1919       H  0.28268520  0.93851175  0.68275976     0.10800
H1920       H  0.31369154  0.99657847  0.71354540     0.16600
C1921       C  0.34953802  0.84014076  0.57526208    -0.01600
C1922       C  0.32935258  0.84021821  0.57091656     0.07000
C1923       C  0.31639820  0.84950864  0.58393825    -0.07600
C1924       C  0.32320710  0.85866081  0.60101792     0.04400
C1925       C  0.34342001  0.85834761  0.60550572    -0.14800
C1926       C  0.35632731  0.84903876  0.59242374    -0.08100
C1927       C  0.32137293  0.83014618  0.55327394     0.05400
C1928       C  0.32538329  0.81017989  0.55046168    -0.09200
C1929       C  0.31777722  0.79999285  0.53436906     0.00400
C1930       C  0.30511932  0.80964668  0.52105361     0.00200
C1931       C  0.30131843  0.82970670  0.52379738    -0.12800
C1932       C  0.30951196  0.84001112  0.53951579     0.00700
C1933       C  0.32305726  0.77962201  0.53222942     0.40000
C1934       C  0.30594684  0.86081136  0.54090334     0.36600
C1935       C  0.36365973  0.83128691  0.56222997     0.36400
C1936       C  0.30897462  0.86745689  0.61396056     0.37100
N1937       N  0.32748923  0.76335782  0.53045430    -0.43700
N1938       N  0.30315361  0.87749227  0.54199026    -0.44100
N1939       N  0.29749373  0.87450527  0.62425422    -0.41500
N1940       N  0.37497517  0.82412244  0.55183752    -0.42900
H1941       H  0.37189054  0.84878912  0.59554374     0.13200
H1942       H  0.30081869  0.84932580  0.58089664     0.09700
H1943       H  0.33441119  0.80244683  0.56100965     0.10800
H1944       H  0.29202382  0.83747672  0.51351606     0.16600
C1945       C  0.44168543  0.80427052  0.68110528    -0.01600
C1946       C  0.44152964  0.82486814  0.68202925     0.07000
C1947       C  0.45656280  0.83471123  0.69189805    -0.07600
C1948       C  0.47167112  0.82424286  0.70098983     0.04400
C1949       C  0.47169030  0.80352471  0.70036680    -0.14800
C1950       C  0.45675444  0.79377637  0.69015452    -0.08100
C1951       C  0.42527699  0.83626238  0.67344382     0.05400
C1952       C  0.41007021  0.84234846  0.68578176    -0.09200
C1953       C  0.39349911  0.85161469  0.67811507     0.00400
C1954       C  0.39239866  0.85564630  0.65782761     0.00200
C1955       C  0.40770982  0.84953755  0.64549546    -0.12800
C1956       C  0.42400782  0.83973357  0.65312318     0.00700
C1957       C  0.37710005  0.85494884  0.69103340     0.40000
C1958       C  0.43899393  0.83290112  0.63984925     0.36600
C1959       C  0.42625007  0.79365234  0.67132169     0.36400
C1960       C  0.48730554  0.83512486  0.71017854     0.37100
N1961       N  0.36388249  0.85724217  0.70139934    -0.43700
N1962       N  0.45093663  0.82726111  0.62922044    -0.44100
N1963       N  0.49989093  0.84381712  0.71746756    -0.41500
N1964       N  0.41381719  0.78525117  0.66346248    -0.42900
H1965       H  0.45662644  0.77790235  0.68958224     0.13200
H1966       H  0.45647215  0.85058848  0.69246668     0.09700
H1967       H  0.41078343  0.83903996  0.70133071     0.10800
H1968       H  0.40683724  0.85225025  0.62984224     0.16600
C1969       C  0.80715835  0.09322255  0.17874021    -0.01600
C1970       C  0.82688245  0.09085393  0.17292010     0.07000
C1971       C  0.83683747  0.07363653  0.17819971    -0.07600
C1972       C  0.82757596  0.05904213  0.18928499     0.04400
C1973       C  0.80801988  0.06161333  0.19534196    -0.14800
C1974       C  0.79788455  0.07854712  0.18967497    -0.08100
C1975       C  0.83779185  0.10662989  0.16252075     0.05400
C1976       C  0.85458864  0.11440206  0.17135870    -0.09200
C1977       C  0.86480939  0.13002647  0.16284375     0.00400
C1978       C  0.85772735  0.13886476  0.14535937     0.00200
C1979       C  0.84146420  0.13021953  0.13601430    -0.12800
C1980       C  0.83180450  0.11405208  0.14418946     0.00700
C1981       C  0.88275369  0.13602139  0.17226078     0.40000
C1982       C  0.81616346  0.10497681  0.13323207     0.36600
C1983       C  0.79632234  0.11085649  0.17439026     0.36400
C1984       C  0.83817678  0.04126908  0.19357456     0.37100
N1985       N  0.89724971  0.14048892  0.17980675    -0.43700
N1986       N  0.80369175  0.09762818  0.12442909    -0.44100
N1987       N  0.84672948  0.02700274  0.19679991    -0.41500
N1988       N  0.78755374  0.12491128  0.17080736    -0.42900
H1989       H  0.78282158  0.08056157  0.19430186     0.13200
H1990       H  0.85192125  0.07163028  0.17366338     0.09700
H1991       H  0.85970395  0.10826290  0.18511748     0.10800
H1992       H  0.83614047  0.13606285  0.12222683     0.16600
C1993       C  0.73966539  0.07712293  0.29167330    -0.01600
C1994       C  0.72786185  0.09147715  0.28264086     0.07000
C1995       C  0.72745399  0.09274265  0.26209192    -0.07600
C1996       C  0.73823471  0.07971152  0.25051362     0.04400
C1997       C  0.74994394  0.06526123  0.25956225    -0.14800
C1998       C  0.75067669  0.06430236  0.28012228    -0.08100
C1999       C  0.71626349  0.10565564  0.29433915     0.05400
C2000       C  0.72601350  0.11798652  0.30752581    -0.09200
C2001       C  0.71582791  0.13201708  0.31842810     0.00400
C2002       C  0.69533581  0.13419867  0.31589647     0.00200
C2003       C  0.68560960  0.12159082  0.30279995    -0.12800
C2004       C  0.69582242  0.10735880  0.29218152     0.00700
C2005       C  0.72709007  0.14418756  0.33155662     0.40000
C2006       C  0.68495125  0.09443151  0.27944766     0.36600
C2007       C  0.74021020  0.07481016  0.31272500     0.36400
C2008       C  0.73745473  0.08187466  0.22945806     0.37100
N2009       N  0.73622028  0.15380694  0.34211083    -0.43700
N2010       N  0.67625354  0.08405452  0.26925618    -0.44100
N2011       N  0.73684714  0.08361385  0.21258426    -0.41500
N2012       N  0.74065636  0.07296461  0.32959190    -0.42900
H2013       H  0.75943218  0.05309675  0.28721490     0.13200
H2014       H  0.71872332  0.10401941  0.25508683     0.09700
H2015       H  0.74176794  0.11680278  0.30911110     0.10800
H2016       H  0.66990522  0.12277329  0.30084299     0.16600
C2017       C  0.69978675  0.92945295  0.28260428    -0.01600
C2018       C  0.71204108  0.94119294  0.29433873     0.07000
C2019       C  0.71180951  0.93883358  0.31474366    -0.07600
C2020       C  0.69983694  0.92467624  0.32354593     0.04400
C2021       C  0.68788630  0.91247967  0.31172726    -0.14800
C2022       C  0.68784718  0.91533004  0.29132089    -0.08100
C2023       C  0.72466985  0.95638629  0.28541280     0.05400
C2024       C  0.71566777  0.97216584  0.27591552    -0.09200
C2025       C  0.72673343  0.98583183  0.26548712     0.00400
C2026       C  0.74730300  0.98380111  0.26442425     0.00200
C2027       C  0.75643131  0.96859918  0.27487146    -0.12800
C2028       C  0.74526031  0.95485112  0.28529474     0.00700
C2029       C  0.71657968  0.00199082  0.25633762     0.40000
C2030       C  0.75512256  0.93885673  0.29501031     0.36600
C2031       C  0.69968361  0.93119127  0.26149090     0.36400
C2032       C  0.69987698  0.92336016  0.34469315     0.37100
N2033       N  0.70841859  0.01495155  0.24906895    -0.43700
N2034       N  0.76301015  0.92604260  0.30282492    -0.44100
N2035       N  0.69992798  0.92235184  0.36163946    -0.41500
N2036       N  0.69958502  0.93259055  0.24457747    -0.42900
H2037       H  0.67896233  0.90605530  0.28198411     0.13200
H2038       H  0.72094929  0.94815284  0.32379452     0.09700
H2039       H  0.69985639  0.97357407  0.27636732     0.10800
H2040       H  0.77221422  0.96702685  0.27428090     0.16600
C2041       C  0.58119453  0.81852599  0.28064085    -0.01600
C2042       C  0.59400865  0.83121718  0.27065404     0.07000
C2043       C  0.59363135  0.83206017  0.25014398    -0.07600
C2044       C  0.58063275  0.82036570  0.23944092     0.04400
C2045       C  0.56760164  0.80769252  0.24941740    -0.14800
C2046       C  0.56810724  0.80693933  0.27001680    -0.08100
C2047       C  0.60923897  0.84216737  0.28133319     0.05400
C2048       C  0.62642054  0.83223138  0.28635879    -0.09200
C2049       C  0.64102939  0.84153825  0.29716669     0.00400
C2050       C  0.63839092  0.86110014  0.30330356     0.00200
C2051       C  0.62144442  0.87128209  0.29773887    -0.12800
C2052       C  0.60681313  0.86191696  0.28681581     0.00700
C2053       C  0.65892406  0.83096328  0.30106060     0.40000
C2054       C  0.58938098  0.87267440  0.28164230     0.36600
C2055       C  0.58138653  0.81706299  0.30177477     0.36400
C2056       C  0.58176262  0.82091517  0.21830404     0.37100
N2057       N  0.67331992  0.82254275  0.30402997    -0.43700
N2058       N  0.57543297  0.88134550  0.27748545    -0.44100
N2059       N  0.58279997  0.82129217  0.20136715    -0.41500
N2060       N  0.58159824  0.81588949  0.31870576    -0.42900
H2061       H  0.55812676  0.79739548  0.27788770     0.13200
H2062       H  0.60388073  0.84149911  0.24249429     0.09700
H2063       H  0.62838273  0.81713459  0.28180602     0.10800
H2064       H  0.61948422  0.88638130  0.30226210     0.16600
C2065       C  0.71076905  0.80330773  0.40259945    -0.01600
C2066       C  0.71161473  0.82391530  0.40297205     0.07000
C2067       C  0.72228566  0.83339373  0.41769511    -0.07600
C2068       C  0.73248710  0.82265522  0.43178059     0.04400
C2069       C  0.73183584  0.80195440  0.43136847    -0.14800
C2070       C  0.72073869  0.79250748  0.41685148    -0.08100
C2071       C  0.70211091  0.83593362  0.38772503     0.05400
C2072       C  0.68165176  0.83592381  0.38621089    -0.09200
C2073       C  0.67226579  0.84709127  0.37180884     0.00400
C2074       C  0.68352477  0.85855223  0.35873379     0.00200
C2075       C  0.70398321  0.85879636  0.36060557    -0.12800
C2076       C  0.71331923  0.84754433  0.37486089     0.00700
C2077       C  0.65114210  0.84695521  0.37117941     0.40000
C2078       C  0.73445075  0.84762235  0.37558646     0.36600
C2079       C  0.70037643  0.79295704  0.38735869     0.36400
C2080       C  0.74294479  0.83333852  0.44675547     0.37100
N2081       N  0.63421048  0.84684990  0.37074518    -0.43700
N2082       N  0.75137448  0.84765063  0.37621202    -0.44100
N2083       N  0.75126991  0.84194265  0.45875531    -0.41500
N2084       N  0.69207806  0.78467161  0.37511985    -0.42900
H2085       H  0.72017210  0.77663781  0.41639165     0.13200
H2086       H  0.72273876  0.84927573  0.41805831     0.09700
H2087       H  0.67303793  0.82720324  0.39634144     0.10800
H2088       H  0.71279929  0.86735222  0.35050974     0.16600
C2089       C  0.83740053  0.96235536  0.19033803    -0.01600
C2090       C  0.82717204  0.94608360  0.18285903     0.07000
C2091       C  0.80680537  0.94497911  0.18518360    -0.07600
C2092       C  0.79651681  0.95995513  0.19464180     0.04400
C2093       C  0.80673213  0.97633754  0.20200793    -0.14800
C2094       C  0.82715860  0.97721478  0.19999690    -0.08100
C2095       C  0.83745412  0.92986712  0.17283770     0.05400
C2096       C  0.84986485  0.91772165  0.18376353    -0.09200
C2097       C  0.85915364  0.90165504  0.17506485     0.00400
C2098       C  0.85629254  0.89774221  0.15485275     0.00200
C2099       C  0.84391100  0.91013129  0.14397436    -0.12800
C2100       C  0.83445739  0.92599945  0.15279659     0.00700
C2101       C  0.87049594  0.88891496  0.18758865     0.40000
C2102       C  0.82177824  0.93817317  0.14101824     0.36600
C2103       C  0.85828180  0.96437605  0.18776692     0.36400
C2104       C  0.77568966  0.95769087  0.19745875     0.37100
N2105       N  0.87947089  0.87867150  0.19769424    -0.43700
N2106       N  0.81154503  0.94793263  0.13166831    -0.44100
N2107       N  0.75901909  0.95583833  0.19982718    -0.41500
N2108       N  0.87500249  0.96604959  0.18564097    -0.42900
H2109       H  0.83510485  0.98969848  0.20571695     0.13200
H2110       H  0.79897767  0.93228345  0.17972196     0.09700
H2111       H  0.85187880  0.92053791  0.19929147     0.10800
H2112       H  0.84150164  0.90739287  0.12849776     0.16600
C2113       C  0.09016753  0.73500632  0.28907545    -0.01600
C2114       C  0.09055210  0.71438520  0.28962283     0.07000
C2115       C  0.07568273  0.70366534  0.28046055    -0.07600
C2116       C  0.06074705  0.71322348  0.27025309     0.04400
C2117       C  0.06072258  0.73388447  0.26902966    -0.14800
C2118       C  0.07524882  0.74459763  0.27886280    -0.08100
C2119       C  0.10696981  0.70375961  0.29876633     0.05400
C2120       C  0.10879896  0.70373754  0.31922712    -0.09200
C2121       C  0.12501595  0.69504993  0.32822198     0.00400
C2122       C  0.13970634  0.68629650  0.31656070     0.00200
C2123       C  0.13733588  0.68560135  0.29612544    -0.12800
C2124       C  0.12117782  0.69432863  0.28717137     0.00700
C2125       C  0.12602971  0.69499916  0.34937595     0.40000
C2126       C  0.11996890  0.69429565  0.26602273     0.36600
C2127       C  0.10535415  0.74654000  0.29821316     0.36400
C2128       C  0.04535867  0.70152653  0.26168892     0.37100
N2129       N  0.12678743  0.69488416  0.36633133    -0.43700
N2130       N  0.11900539  0.69431805  0.24907927    -0.44100
N2131       N  0.03296237  0.69218113  0.25490751    -0.41500
N2132       N  0.11755330  0.75572671  0.30554799    -0.42900
H2133       H  0.07530265  0.76046647  0.27804888     0.13200
H2134       H  0.07589503  0.68779164  0.28114084     0.09700
H2135       H  0.09766211  0.71075583  0.32812365     0.10800
H2136       H  0.14856404  0.67899501  0.28702973     0.16600
C2137       C  0.12506440  0.80961596  0.16646615    -0.01600
C2138       C  0.10991669  0.82062723  0.17510686     0.07000
C2139       C  0.10979458  0.84102931  0.17316512    -0.07600
C2140       C  0.12454183  0.85062787  0.16268684     0.04400
C2141       C  0.13988223  0.83966116  0.15409711    -0.14800
C2142       C  0.13983714  0.81916574  0.15598591    -0.08100
C2143       C  0.09383214  0.81111985  0.18597253     0.05400
C2144       C  0.09291385  0.81324847  0.20639011    -0.09200
C2145       C  0.07799822  0.80424945  0.21720398     0.00400
C2146       C  0.06375202  0.79284390  0.20743002     0.00200
C2147       C  0.06465217  0.79096869  0.18693909    -0.12800
C2148       C  0.07941127  0.80014952  0.17617279     0.00700
C2149       C  0.07815532  0.80635532  0.23828024     0.40000
C2150       C  0.07923452  0.79851758  0.15505951     0.36600
C2151       C  0.12593845  0.78857708  0.16852544     0.36400
C2152       C  0.12306971  0.87160199  0.16036865     0.37100
N2153       N  0.07830447  0.80806203  0.25516643    -0.43700
N2154       N  0.07907754  0.79729680  0.13813491    -0.44100
N2155       N  0.12179478  0.88840163  0.15849236    -0.41500
N2156       N  0.12662271  0.77172026  0.17017820    -0.42900
H2157       H  0.15159883  0.81059636  0.14962612     0.13200
H2158       H  0.09797357  0.84943286  0.17964796     0.09700
H2159       H  0.10402194  0.82177469  0.21388300     0.10800
H2160       H  0.05364011  0.78248743  0.17926245     0.16600
C2161       C  0.92075652  0.81443780  0.16104722    -0.01600
C2162       C  0.93601488  0.82450936  0.17050054     0.07000
C2163       C  0.93664744  0.84501164  0.16983786    -0.07600
C2164       C  0.92188895  0.85562110  0.16034617     0.04400
C2165       C  0.90614699  0.84556933  0.15144713    -0.14800
C2166       C  0.90601977  0.82498162  0.15156445    -0.08100
C2167       C  0.95086770  0.81387824  0.18203548     0.05400
C2168       C  0.96736831  0.80628007  0.17252648    -0.09200
C2169       C  0.98150372  0.79580211  0.18304647     0.00400
C2170       C  0.97922619  0.79307015  0.20347062     0.00200
C2171       C  0.96270654  0.80079809  0.21293154    -0.12800
C2172       C  0.94842825  0.81093626  0.20232849     0.00700
C2173       C  0.99847703  0.78859889  0.17268187     0.40000
C2174       C  0.93113628  0.81777875  0.21239766     0.36600
C2175       C  0.91962943  0.79332258  0.16146337     0.36400
C2176       C  0.92351168  0.87669403  0.15954267     0.37100
N2177       N  0.01207673  0.78283287  0.16437210    -0.43700
N2178       N  0.91718111  0.82316693  0.22035941    -0.44100
N2179       N  0.92485432  0.89357655  0.15880850    -0.41500
N2180       N  0.91874214  0.77640102  0.16182974    -0.42900
H2181       H  0.89401699  0.81707646  0.14481801     0.13200
H2182       H  0.94856794  0.85270778  0.17696479     0.09700
H2183       H  0.96915625  0.80852810  0.15687677     0.10800
H2184       H  0.96076020  0.79855331  0.22856378     0.16600
C2185       C  0.94676807  0.71435237  0.26356718    -0.01600
C2186       C  0.94658603  0.71287969  0.28418557     0.07000
C2187       C  0.96191253  0.72103922  0.29510617    -0.07600
C2188       C  0.97718004  0.73099448  0.28576726     0.04400
C2189       C  0.97706209  0.73299847  0.26515307    -0.14800
C2190       C  0.96199909  0.72432528  0.25422245    -0.08100
C2191       C  0.93034831  0.70310976  0.29461430     0.05400
C2192       C  0.92825683  0.68278737  0.29296680    -0.09200
C2193       C  0.91248884  0.67313290  0.30178343     0.00400
C2194       C  0.89832951  0.68400495  0.31237422     0.00200
C2195       C  0.90096681  0.70431700  0.31456610    -0.12800
C2196       C  0.91678456  0.71389258  0.30578040     0.00700
C2197       C  0.91153265  0.65208076  0.29996534     0.40000
C2198       C  0.91838677  0.73489425  0.30773712     0.36600
C2199       C  0.93120079  0.70626726  0.25176540     0.36400
C2200       C  0.99318496  0.73821676  0.29755240     0.37100
N2201       N  0.91086649  0.63520812  0.29848646    -0.43700
N2202       N  0.91971705  0.75171999  0.30927546    -0.44100
N2203       N  0.00608853  0.74386656  0.30696867    -0.41500
N2204       N  0.91873949  0.69979670  0.24228452    -0.42900
H2205       H  0.96189143  0.72573416  0.23837261     0.13200
H2206       H  0.96193242  0.71956425  0.31094877     0.09700
H2207       H  0.93894102  0.67448260  0.28463463     0.10800
H2208       H  0.89028051  0.71291314  0.32257453     0.16600
C2209       C  0.82482178  0.60625527  0.30756683    -0.01600
C2210       C  0.82697049  0.60371414  0.28716459     0.07000
C2211       C  0.83876349  0.61673347  0.27653462    -0.07600
C2212       C  0.84824793  0.63229832  0.28585811     0.04400
C2213       C  0.84584471  0.63510201  0.30629829    -0.14800
C2214       C  0.83414404  0.62190510  0.31691762    -0.08100
C2215       C  0.81628610  0.58815773  0.27646990     0.05400
C2216       C  0.79576805  0.58852546  0.27644089    -0.09200
C2217       C  0.78502991  0.57434476  0.26631274     0.00400
C2218       C  0.79491542  0.55939896  0.25595056     0.00200
C2219       C  0.81547436  0.55927458  0.25570186    -0.12800
C2220       C  0.82618783  0.57345509  0.26588008     0.00700
C2221       C  0.76396142  0.57605366  0.26607986     0.40000
C2222       C  0.84729273  0.57237752  0.26560083     0.36600
C2223       C  0.81333794  0.59283476  0.31922691     0.36400
C2224       C  0.85948345  0.64562071  0.27383308     0.37100
N2225       N  0.74708618  0.57748370  0.26583056    -0.43700
N2226       N  0.86420676  0.57154320  0.26535810    -0.44100
N2227       N  0.86847495  0.65626141  0.26415241    -0.41500
N2228       N  0.80413548  0.58205444  0.32854059    -0.42900
H2229       H  0.83232960  0.62376334  0.33261079     0.13200
H2230       H  0.84021044  0.61495382  0.26078945     0.09700
H2231       H  0.78813039  0.60011051  0.28418200     0.10800
H2232       H  0.82321198  0.54787736  0.24778829     0.16600
C2233       C  0.84260814  0.70458207  0.38770786    -0.01600
C2234       C  0.82204917  0.70649169  0.38731549     0.07000
C2235       C  0.81152765  0.69817508  0.37174532    -0.07600
C2236       C  0.82110700  0.68798976  0.35674098     0.04400
C2237       C  0.84174416  0.68624785  0.35700155    -0.14800
C2238       C  0.85225283  0.69468519  0.37255008    -0.08100
C2239       C  0.81128226  0.71747329  0.40274681     0.05400
C2240       C  0.81562658  0.73732138  0.40575194    -0.09200
C2241       C  0.80577908  0.74827354  0.42003848     0.00400
C2242       C  0.79100528  0.73934819  0.43160342     0.00200
C2243       C  0.78659451  0.71948376  0.42837717    -0.12800
C2244       C  0.79658583  0.70854942  0.41420159     0.00700
C2245       C  0.81090400  0.76870132  0.42200050     0.40000
C2246       C  0.79180265  0.68806573  0.41202003     0.36600
C2247       C  0.85407215  0.71221967  0.40375824     0.36400
C2248       C  0.80940130  0.68022045  0.34092047     0.37100
N2249       N  0.81511408  0.78505194  0.42350284    -0.43700
N2250       N  0.78794852  0.67165797  0.41025065    -0.44100
N2251       N  0.80001370  0.67396239  0.32826702    -0.41500
N2252       N  0.86322731  0.71833110  0.41664841    -0.42900
H2253       H  0.86806240  0.69333041  0.37300372     0.13200
H2254       H  0.79574950  0.69984875  0.37121282     0.09700
H2255       H  0.82670051  0.74433396  0.39675340     0.10800
H2256       H  0.77542671  0.71232649  0.43712782     0.16600
C2257       C  0.19057726  0.61623733  0.65952230    -0.01600
C2258       C  0.21091338  0.61355501  0.66161834     0.07000
C2259       C  0.22376413  0.62820043  0.65521968    -0.07600
C2260       C  0.21665789  0.64572074  0.64735405     0.04400
C2261       C  0.19625011  0.64864940  0.64555341    -0.14800
C2262       C  0.18341176  0.63373616  0.65159658    -0.08100
C2263       C  0.21923116  0.59640176  0.67190987     0.05400
C2264       C  0.23037565  0.58283263  0.66131031    -0.09200
C2265       C  0.24011774  0.56754344  0.67090326     0.00400
C2266       C  0.23873865  0.56571732  0.69156080     0.00200
C2267       C  0.22713526  0.57910289  0.70202531    -0.12800
C2268       C  0.21761533  0.59448538  0.69241690     0.00700
C2269       C  0.25118677  0.55388936  0.65911868     0.40000
C2270       C  0.20717817  0.60879970  0.70397474     0.36600
C2271       C  0.17684539  0.60128235  0.66543872     0.36400
C2272       C  0.23062644  0.66088003  0.64262703     0.37100
N2273       N  0.26008310  0.54297196  0.64967983    -0.43700
N2274       N  0.19887806  0.62040105  0.71312694    -0.44100
N2275       N  0.24192939  0.67299026  0.63904345    -0.41500
N2276       N  0.16579878  0.58932494  0.67016237    -0.42900
H2277       H  0.16773535  0.63575320  0.65011616     0.13200
H2278       H  0.23940787  0.62621697  0.65709621     0.09700
H2279       H  0.23168273  0.58439156  0.64552835     0.10800
H2280       H  0.22605290  0.57798444  0.71785616     0.16600
C2281       C  0.23597048  0.74998003  0.55271363    -0.01600
C2282       C  0.22855124  0.73091004  0.55020101     0.07000
C2283       C  0.23057577  0.72149996  0.53203530    -0.07600
C2284       C  0.23987924  0.73095972  0.51635138     0.04400
C2285       C  0.24693008  0.75021349  0.51878743    -0.14800
C2286       C  0.24483842  0.75958914  0.53694314    -0.08100
C2287       C  0.21842379  0.72074368  0.56640608     0.05400
C2288       C  0.19884863  0.72537114  0.57024494    -0.09200
C2289       C  0.18883905  0.71664929  0.58589183     0.00400
C2290       C  0.19861841  0.70300816  0.59816757     0.00200
C2291       C  0.21830151  0.69839924  0.59404953    -0.12800
C2292       C  0.22819851  0.70713668  0.57836740     0.00700
C2293       C  0.16848106  0.72171048  0.58846765     0.40000
C2294       C  0.24848395  0.70223563  0.57502031     0.36600
C2295       C  0.23518507  0.75964956  0.57152151     0.36400
C2296       C  0.24156419  0.72090947  0.49779899     0.37100
N2297       N  0.15216703  0.72583509  0.59042538    -0.43700
N2298       N  0.26474833  0.69834284  0.57233474    -0.44100
N2299       N  0.24289862  0.71288722  0.48291201    -0.41500
N2300       N  0.23470396  0.76726767  0.58666736    -0.42900
H2301       H  0.25059885  0.77426383  0.53892646     0.13200
H2302       H  0.22486555  0.70680034  0.53014390     0.09700
H2303       H  0.19137499  0.73586960  0.56093252     0.10800
H2304       H  0.22614555  0.68807503  0.60321046     0.16600
C2305       C  0.58352455  0.22922126  0.67596245    -0.01600
C2306       C  0.59824621  0.22057840  0.68763448     0.07000
C2307       C  0.59661796  0.22137361  0.70812773    -0.07600
C2308       C  0.58055880  0.23041888  0.71707176     0.04400
C2309       C  0.56583249  0.23910126  0.70537617    -0.14800
C2310       C  0.56759077  0.23849230  0.68488359    -0.08100
C2311       C  0.61560156  0.21096079  0.67872766     0.05400
C2312       C  0.62779100  0.22189900  0.66636124    -0.09200
C2313       C  0.64386109  0.21331677  0.65699683     0.00400
C2314       C  0.64837806  0.19328831  0.66038014     0.00200
C2315       C  0.63632024  0.18254442  0.67325936    -0.12800
C2316       C  0.62001617  0.19110975  0.68224305     0.00700
C2317       C  0.65509514  0.22564684  0.64398232     0.40000
C2318       C  0.60758206  0.17902413  0.69438445     0.36600
C2319       C  0.58422082  0.22840507  0.65481064     0.36400
C2320       C  0.58005417  0.23132527  0.73823629     0.37100
N2321       N  0.66371736  0.23577512  0.63345621    -0.43700
N2322       N  0.59756505  0.16938838  0.70410361    -0.44100
N2323       N  0.57965440  0.23206743  0.75518952    -0.41500
N2324       N  0.58482404  0.22776781  0.63786207    -0.42900
H2325       H  0.55634664  0.24508198  0.67579130     0.13200
H2326       H  0.60806916  0.21507414  0.71716593     0.09700
H2327       H  0.62456142  0.23726819  0.66383206     0.10800
H2328       H  0.63927795  0.16717362  0.67600463     0.16600
C2329       C  0.74635384  0.21319710  0.55508874    -0.01600
C2330       C  0.72585611  0.21390487  0.55707722     0.07000
C2331       C  0.71469712  0.22401965  0.54315667    -0.07600
C2332       C  0.72375894  0.23404979  0.52769855     0.04400
C2333       C  0.74443209  0.23415221  0.52614659    -0.14800
C2334       C  0.75547438  0.22321768  0.53966318    -0.08100
C2335       C  0.71595566  0.20525129  0.57431605     0.05400
C2336       C  0.71587030  0.21585934  0.59190182    -0.09200
C2337       C  0.70698635  0.20821444  0.60872964     0.00400
C2338       C  0.69809402  0.18958510  0.60805914     0.00200
C2339       C  0.69832034  0.17889414  0.59049475    -0.12800
C2340       C  0.70700014  0.18668266  0.57358231     0.00700
C2341       C  0.70798882  0.21935354  0.62669164     0.40000
C2342       C  0.70659318  0.17541435  0.55569220     0.36600
C2343       C  0.75825762  0.20246670  0.56889753     0.36400
C2344       C  0.71144757  0.24366028  0.51341815     0.37100
N2345       N  0.70889952  0.22829079  0.64107681    -0.43700
N2346       N  0.70618351  0.16637886  0.54134766    -0.44100
N2347       N  0.70154772  0.25126885  0.50194367    -0.41500
N2348       N  0.76770803  0.19380801  0.57999702    -0.42900
H2349       H  0.77130771  0.22295638  0.53853034     0.13200
H2350       H  0.69888277  0.22431821  0.54457059     0.09700
H2351       H  0.72289835  0.23009110  0.59248029     0.10800
H2352       H  0.69148588  0.16456847  0.58994274     0.16600
C2353       C  0.69229114  0.61603645  0.17189155    -0.01600
C2354       C  0.70500120  0.60304210  0.16204410     0.07000
C2355       C  0.70734687  0.60486122  0.14168024    -0.07600
C2356       C  0.69766087  0.61957115  0.13115199     0.04400
C2357       C  0.68483265  0.63257670  0.14100489    -0.14800
C2358       C  0.68225547  0.63044055  0.16135213    -0.08100
C2359       C  0.71573328  0.58736442  0.17273252     0.05400
C2360       C  0.70507289  0.57396041  0.18412459    -0.09200
C2361       C  0.71454373  0.55953117  0.19516926     0.00400
C2362       C  0.73519039  0.55805791  0.19461976     0.00200
C2363       C  0.74579309  0.57103764  0.18266599    -0.12800
C2364       C  0.73631732  0.58566498  0.17187993     0.00700
C2365       C  0.70258655  0.54620994  0.20647069     0.40000
C2366       C  0.74815703  0.59905102  0.16054432     0.36600
C2367       C  0.68974238  0.61534992  0.19291487     0.36400
C2368       C  0.70109198  0.62065856  0.11028015     0.37100
N2369       N  0.69292784  0.53560000  0.21551734    -0.43700
N2370       N  0.75772448  0.60966889  0.15141406    -0.44100
N2371       N  0.70405855  0.62148199  0.09358720    -0.41500
N2372       N  0.68764635  0.61477931  0.20974857    -0.42900
H2373       H  0.67275389  0.64042452  0.16924696     0.13200
H2374       H  0.71681897  0.59471308  0.13395574     0.09700
H2375       H  0.68922396  0.57483359  0.18443889     0.10800
H2376       H  0.76162639  0.57005857  0.18207095     0.16600
C2377       C  0.57623769  0.71005068  0.18316665    -0.01600
C2378       C  0.58930017  0.71772016  0.16916341     0.07000
C2379       C  0.58861212  0.73775817  0.16461460    -0.07600
C2380       C  0.57568924  0.75033851  0.17444127     0.04400
C2381       C  0.56334949  0.74282178  0.18933951    -0.14800
C2382       C  0.56363754  0.72259410  0.19325036    -0.08100
C2383       C  0.60410814  0.70514842  0.15949035     0.05400
C2384       C  0.60336585  0.70264341  0.13910498    -0.09200
C2385       C  0.61746815  0.69135551  0.12942083     0.00400
C2386       C  0.63260125  0.68229257  0.14027312     0.00200
C2387       C  0.63299558  0.68439354  0.16072144    -0.12800
C2388       C  0.61910978  0.69594111  0.17033710     0.00700
C2389       C  0.61595112  0.68914887  0.10840569     0.40000
C2390       C  0.62118563  0.69896556  0.19119211     0.36600
C2391       C  0.57530450  0.68930249  0.18721560     0.36400
C2392       C  0.57590273  0.77085064  0.16927676     0.37100
N2393       N  0.61474306  0.68738584  0.09156891    -0.43700
N2394       N  0.62286801  0.70139929  0.20789914    -0.44100
N2395       N  0.57609384  0.78725174  0.16497504    -0.41500
N2396       N  0.57458963  0.67267183  0.19042137    -0.42900
H2397       H  0.55383103  0.71645659  0.20415607     0.13200
H2398       H  0.59849047  0.74363640  0.15362641     0.09700
H2399       H  0.59179189  0.70962047  0.13075329     0.10800
H2400       H  0.64476448  0.67781493  0.16912620     0.16600
C2401       C  0.83187055  0.07502349  0.76320529    -0.01600
C2402       C  0.82176470  0.08804083  0.77562296     0.07000
C2403       C  0.80166100  0.08551468  0.77872776    -0.07600
C2404       C  0.79148422  0.07026818  0.76968817     0.04400
C2405       C  0.80157011  0.05708040  0.75725957    -0.14800
C2406       C  0.82175375  0.05968697  0.75418071    -0.08100
C2407       C  0.83150385  0.10510897  0.78469352     0.05400
C2408       C  0.83921745  0.11970078  0.77247095    -0.09200
C2409       C  0.84709777  0.13686092  0.78034077     0.00400
C2410       C  0.84715009  0.13966109  0.80090124     0.00200
C2411       C  0.83960788  0.12488418  0.81310028    -0.12800
C2412       C  0.83192470  0.10766274  0.80519156     0.00700
C2413       C  0.85408084  0.15163078  0.76686833     0.40000
C2414       C  0.82474543  0.09273654  0.81838221     0.36600
C2415       C  0.85260639  0.07703912  0.75962525     0.36400
C2416       C  0.77058873  0.06923870  0.77275083     0.37100
N2417       N  0.85967923  0.16341685  0.75602132    -0.43700
N2418       N  0.81901025  0.08076935  0.82895152    -0.44100
N2419       N  0.75384226  0.06852122  0.77520272    -0.41500
N2420       N  0.86920776  0.07871409  0.75670425    -0.42900
H2421       H  0.82970034  0.04968961  0.74473203     0.13200
H2422       H  0.79380010  0.09581651  0.78793224     0.09700
H2423       H  0.83860688  0.11787307  0.75667751     0.10800
H2424       H  0.83979644  0.12673433  0.82889780     0.16600
C2425       C  0.71129871  0.10617097  0.65059537    -0.01600
C2426       C  0.71035219  0.10151241  0.67073881     0.07000
C2427       C  0.70057542  0.11425383  0.68348197    -0.07600
C2428       C  0.69216318  0.13165774  0.67673789     0.04400
C2429       C  0.69341188  0.13661272  0.65655734    -0.14800
C2430       C  0.70282614  0.12350772  0.64377994    -0.08100
C2431       C  0.72084824  0.08438241  0.67908232     0.05400
C2432       C  0.74127685  0.08365173  0.67750848    -0.09200
C2433       C  0.75204216  0.06881240  0.68661545     0.00400
C2434       C  0.74229512  0.05436240  0.69787038     0.00200
C2435       C  0.72177487  0.05493985  0.69916908    -0.12800
C2436       C  0.71101586  0.06966352  0.68976252     0.00700
C2437       C  0.77310792  0.06940058  0.68494528     0.40000
C2438       C  0.68992007  0.06925990  0.69096031     0.36600
C2439       C  0.72096831  0.09340746  0.63677355     0.36400
C2440       C  0.68346979  0.14456993  0.69106468     0.37100
N2441       N  0.78998666  0.06983681  0.68359829    -0.43700
N2442       N  0.67300702  0.06895464  0.69180135    -0.44100
N2443       N  0.67657504  0.15486066  0.70264253    -0.41500
N2444       N  0.72877665  0.08323008  0.62569233    -0.42900
H2445       H  0.70379782  0.12696292  0.62805852     0.13200
H2446       H  0.70012449  0.11084569  0.69921449     0.09700
H2447       H  0.74895078  0.09513700  0.66948852     0.10800
H2448       H  0.71406230  0.04374747  0.70752996     0.16600
C2449       C  0.11901407  0.81004254  0.80007421    -0.01600
C2450       C  0.10386743  0.82103599  0.79135677     0.07000
C2451       C  0.10349113  0.84142066  0.79380501    -0.07600
C2452       C  0.11823068  0.85099104  0.80434649     0.04400
C2453       C  0.13378149  0.84005101  0.81255264    -0.14800
C2454       C  0.13374832  0.81957368  0.81060260    -0.08100
C2455       C  0.08810746  0.81144416  0.77994463     0.05400
C2456       C  0.07556520  0.79834168  0.78953995    -0.09200
C2457       C  0.06077527  0.78855931  0.77931656     0.00400
C2458       C  0.05820441  0.79201268  0.75898764     0.00200
C2459       C  0.07064931  0.80542521  0.74949812    -0.12800
C2460       C  0.08556489  0.81503180  0.75974616     0.00700
C2461       C  0.04831387  0.77543300  0.79028150     0.40000
C2462       C  0.09848333  0.82797480  0.74909207     0.36600
C2463       C  0.12011953  0.78904072  0.79782060     0.36400
C2464       C  0.11666090  0.87191117  0.80705237     0.37100
N2465       N  0.03841373  0.76490795  0.79916155    -0.43700
N2466       N  0.10884316  0.83831013  0.74052162    -0.44100
N2467       N  0.11532894  0.88865830  0.80929958    -0.41500
N2468       N  0.12096414  0.77221032  0.79601729    -0.42900
H2469       H  0.14562370  0.81100777  0.81675528     0.13200
H2470       H  0.09158735  0.84984625  0.78751142     0.09700
H2471       H  0.07739130  0.79573500  0.80513211     0.10800
H2472       H  0.06901309  0.80813599  0.73390969     0.16600
C2473       C  0.07874450  0.73198053  0.66564538    -0.01600
C2474       C  0.09336711  0.72137255  0.67562603     0.07000
C2475       C  0.09163169  0.71841313  0.69590489    -0.07600
C2476       C  0.07565501  0.72588432  0.70634191     0.04400
C2477       C  0.06093537  0.73653017  0.69637315    -0.14800
C2478       C  0.06272466  0.73944231  0.67603630    -0.08100
C2479       C  0.11089130  0.71363252  0.66538399     0.05400
C2480       C  0.12434101  0.72680943  0.65716585    -0.09200
C2481       C  0.14161846  0.72011938  0.64835831     0.00400
C2482       C  0.14564537  0.69977876  0.64767139     0.00200
C2483       C  0.13202821  0.68665673  0.65584136    -0.12800
C2484       C  0.11478072  0.69338903  0.66458289     0.00700
C2485       C  0.15526579  0.73455548  0.64108050     0.40000
C2486       C  0.10111823  0.67924031  0.67237033     0.36600
C2487       C  0.07975817  0.73521337  0.64474125     0.36400
C2488       C  0.07543403  0.72334936  0.72737211     0.37100
N2489       N  0.16616728  0.74618273  0.63529655    -0.43700
N2490       N  0.09013595  0.66793701  0.67861498    -0.44100
N2491       N  0.07540310  0.72134937  0.74422912    -0.41500
N2492       N  0.08056100  0.73784249  0.62799157    -0.42900
H2493       H  0.05156396  0.74760012  0.66820904     0.13200
H2494       H  0.10304772  0.71054466  0.70366652     0.09700
H2495       H  0.12150550  0.74241884  0.65802962     0.10800
H2496       H  0.13476354  0.67101993  0.65527183     0.16600
C2497       C  0.85390963  0.82717397  0.07412384    -0.01600
C2498       C  0.83331928  0.82727328  0.07301236     0.07000
C2499       C  0.82247979  0.83718154  0.08736053    -0.07600
C2500       C  0.83177367  0.84709169  0.10264331     0.04400
C2501       C  0.85243809  0.84688770  0.10393862    -0.14800
C2502       C  0.86326855  0.83683323  0.08958310    -0.08100
C2503       C  0.82261045  0.81721115  0.05706462     0.05400
C2504       C  0.82414477  0.79680751  0.05517855    -0.09200
C2505       C  0.81333924  0.78673470  0.04094044     0.00400
C2506       C  0.80057302  0.79721093  0.02840320     0.00200
C2507       C  0.79916182  0.81764169  0.03037249    -0.12800
C2508       C  0.81009419  0.82766184  0.04441855     0.00700
C2509       C  0.81518190  0.76568222  0.04005866     0.40000
C2510       C  0.80852122  0.84874142  0.04530911     0.36600
C2511       C  0.86572999  0.81770658  0.05934931     0.36400
C2512       C  0.81959763  0.85667437  0.11705745     0.37100
N2513       N  0.81671463  0.74881164  0.03942789    -0.43700
N2514       N  0.80727025  0.86562669  0.04605299    -0.44100
N2515       N  0.80977219  0.86438224  0.12852789    -0.41500
N2516       N  0.87522831  0.81015005  0.04750934    -0.42900
H2517       H  0.87912441  0.83667813  0.09031975     0.13200
H2518       H  0.80661703  0.83707537  0.08663726     0.09700
H2519       H  0.83357606  0.78871206  0.06508326     0.10800
H2520       H  0.78972049  0.82593561  0.02064630     0.16600
C2521       C  0.70641913  0.73495280  0.03913888    -0.01600
C2522       C  0.71315826  0.71681865  0.04626773     0.07000
C2523       C  0.73093024  0.70924834  0.03952074    -0.07600
C2524       C  0.74253511  0.71983030  0.02640149     0.04400
C2525       C  0.73630488  0.73855663  0.01982508    -0.14800
C2526       C  0.71800804  0.74567506  0.02611089    -0.08100
C2527       C  0.70252158  0.70592573  0.06161621     0.05400
C2528       C  0.69511489  0.68723647  0.05733555    -0.09200
C2529       C  0.68572350  0.67620254  0.07184677     0.00400
C2530       C  0.68363907  0.68402730  0.09080630     0.00200
C2531       C  0.69100768  0.70267396  0.09507915    -0.12800
C2532       C  0.70066467  0.71355963  0.08073392     0.00700
C2533       C  0.67791247  0.65719659  0.06690634     0.40000
C2534       C  0.70920107  0.73214688  0.08614477     0.36600
C2535       C  0.68769206  0.74282652  0.04502352     0.36400
C2536       C  0.76081040  0.71104395  0.02040748     0.37100
N2537       N  0.67158060  0.64198174  0.06296494    -0.43700
N2538       N  0.71607933  0.74702715  0.09043615    -0.44100
N2539       N  0.77541546  0.70388729  0.01565623    -0.41500
N2540       N  0.67270827  0.74912873  0.04979832    -0.42900
H2541       H  0.71271835  0.75974821  0.02098688     0.13200
H2542       H  0.73599326  0.69519212  0.04496188     0.09700
H2543       H  0.69670376  0.68130827  0.04266778     0.10800
H2544       H  0.68954862  0.70855314  0.10978988     0.16600
C2545       C  0.96057870  0.80057256  0.79043325    -0.01600
C2546       C  0.94732865  0.81397927  0.78198965     0.07000
C2547       C  0.94770361  0.81702967  0.76165127    -0.07600
C2548       C  0.96082530  0.80678471  0.74964998     0.04400
C2549       C  0.97397271  0.79312333  0.75804924    -0.14800
C2550       C  0.97358217  0.79018041  0.77845956    -0.08100
C2551       C  0.93281976  0.82489882  0.79398719     0.05400
C2552       C  0.93378530  0.84542061  0.79458599    -0.09200
C2553       C  0.91985085  0.85632152  0.80499118     0.00400
C2554       C  0.90463880  0.84661239  0.81515339     0.00200
C2555       C  0.90391953  0.82605672  0.81481679    -0.12800
C2556       C  0.91764064  0.81520397  0.80413159     0.00700
C2557       C  0.92174171  0.87738763  0.80530560     0.40000
C2558       C  0.91524327  0.79422444  0.80295235     0.36600
C2559       C  0.96149239  0.79763645  0.81138735     0.36400
C2560       C  0.95996913  0.81019273  0.72876192     0.37100
N2561       N  0.92326328  0.89426834  0.80555789    -0.43700
N2562       N  0.91332546  0.77741497  0.80195263    -0.44100
N2563       N  0.95922108  0.81295878  0.71203019    -0.41500
N2564       N  0.96222490  0.79525131  0.82817557    -0.42900
H2565       H  0.98378804  0.78003273  0.78518451     0.13200
H2566       H  0.93750296  0.82730304  0.75510330     0.09700
H2567       H  0.94542853  0.85293370  0.78680474     0.10800
H2568       H  0.89212601  0.81845649  0.82227908     0.16600
C2569       C  0.85735505  0.92821229  0.79471128    -0.01600
C2570       C  0.83676907  0.92994250  0.79467777     0.07000
C2571       C  0.82550746  0.91613204  0.80486635    -0.07600
C2572       C  0.83434186  0.90072709  0.81500505     0.04400
C2573       C  0.85497063  0.89878318  0.81484991    -0.14800
C2574       C  0.86626135  0.91262852  0.80465320    -0.08100
C2575       C  0.82648972  0.94523507  0.78315640     0.05400
C2576       C  0.82898748  0.94562446  0.76275341    -0.09200
C2577       C  0.81847510  0.95877115  0.75106028     0.00400
C2578       C  0.80510550  0.97195494  0.75984743     0.00200
C2579       C  0.80267381  0.97152777  0.78031804    -0.12800
C2580       C  0.81317196  0.95833798  0.79196519     0.00700
C2581       C  0.82107877  0.95762096  0.73007891     0.40000
C2582       C  0.81004641  0.95856731  0.81291758     0.36600
C2583       C  0.86962727  0.94237099  0.78489192     0.36400
C2584       C  0.82172269  0.88666838  0.82457336     0.37100
N2585       N  0.82323615  0.95653443  0.71328093    -0.43700
N2586       N  0.80743692  0.95867654  0.82968866    -0.44100
N2587       N  0.81158570  0.87544358  0.83224592    -0.41500
N2588       N  0.87947738  0.95371019  0.77702234    -0.42900
H2589       H  0.88208207  0.91136622  0.80458764     0.13200
H2590       H  0.80966635  0.91716478  0.80453164     0.09700
H2591       H  0.83882675  0.93521654  0.75587629     0.10800
H2592       H  0.79258690  0.98160967  0.78730885     0.16600
C2593       C  0.84666220  0.82257347  0.88749848    -0.01600
C2594       C  0.83544387  0.83443634  0.90014922     0.07000
C2595       C  0.83516711  0.85473149  0.89735604    -0.07600
C2596       C  0.84537442  0.86332040  0.88181490     0.04400
C2597       C  0.85622699  0.85142256  0.86868609    -0.14800
C2598       C  0.85700703  0.83111984  0.87199261    -0.08100
C2599       C  0.82373117  0.82586415  0.91624768     0.05400
C2600       C  0.83341718  0.81597410  0.93142089    -0.09200
C2601       C  0.82284144  0.80637156  0.94608985     0.00400
C2602       C  0.80218755  0.80659555  0.94561093     0.00200
C2603       C  0.79252640  0.81743680  0.93107319    -0.12800
C2604       C  0.80311100  0.82700838  0.91638083     0.00700
C2605       C  0.83350706  0.79680564  0.96167714     0.40000
C2606       C  0.79245553  0.83713642  0.90115676     0.36600
C2607       C  0.84708592  0.80152731  0.88965324     0.36400
C2608       C  0.84453663  0.88438212  0.87996240     0.37100
N2609       N  0.84204290  0.78923967  0.97422994    -0.43700
N2610       N  0.78385176  0.84527274  0.88901665    -0.44100
N2611       N  0.84377417  0.90125468  0.87850309    -0.41500
N2612       N  0.84737868  0.78467311  0.89144651    -0.42900
H2613       H  0.86510996  0.82177286  0.86202320     0.13200
H2614       H  0.82679675  0.86387413  0.90730769     0.09700
H2615       H  0.84928727  0.81556307  0.93162678     0.10800
H2616       H  0.77665523  0.81775112  0.93070752     0.16600
C2617       C  0.92446491  0.69418492  0.65238631    -0.01600
C2618       C  0.92357433  0.71093918  0.66442659     0.07000
C2619       C  0.90559524  0.72044857  0.66722218    -0.07600
C2620       C  0.88851013  0.71330525  0.65848295     0.04400
C2621       C  0.88935294  0.69646045  0.64660012    -0.14800
C2622       C  0.90735034  0.68701966  0.64365195    -0.08100
C2623       C  0.94103555  0.71851832  0.67480632     0.05400
C2624       C  0.95536731  0.72866094  0.66417260    -0.09200
C2625       C  0.97129035  0.73737472  0.67373636     0.00400
C2626       C  0.97321041  0.73564022  0.69433762     0.00200
C2627       C  0.95912146  0.72487121  0.70481525    -0.12800
C2628       C  0.94299757  0.71658270  0.69528540     0.00700
C2629       C  0.98541012  0.74789167  0.66200544     0.40000
C2630       C  0.92842236  0.70649044  0.70684577     0.36600
C2631       C  0.94258876  0.68373348  0.64941398     0.36400
C2632       C  0.87013037  0.72269112  0.66300394     0.37100
N2633       N  0.99665426  0.75638010  0.65256442    -0.43700
N2634       N  0.91665813  0.69852195  0.71610130    -0.44100
N2635       N  0.85540707  0.73013215  0.66684858    -0.41500
N2636       N  0.95709478  0.67531346  0.64703613    -0.42900
H2637       H  0.90795063  0.67385299  0.63477841     0.13200
H2638       H  0.90487086  0.73323481  0.67662589     0.09700
H2639       H  0.95383864  0.73015748  0.64840782     0.10800
H2640       H  0.96031336  0.72350367  0.72061940     0.16600
C2641       C  0.81344519  0.62275605  0.65768884    -0.01600
C2642       C  0.82560577  0.61045246  0.66899655     0.07000
C2643       C  0.84580152  0.61402467  0.66942040    -0.07600
C2644       C  0.85389655  0.63005891  0.65949150     0.04400
C2645       C  0.84159188  0.64298024  0.64884477    -0.14800
C2646       C  0.82147192  0.63877807  0.64776596    -0.08100
C2647       C  0.81738995  0.59405551  0.68072984     0.05400
C2648       C  0.80699253  0.57919168  0.67112420    -0.09200
C2649       C  0.79749987  0.56445944  0.68174627     0.00400
C2650       C  0.79848982  0.56433378  0.70247015     0.00200
C2651       C  0.80978537  0.57862048  0.71200990    -0.12800
C2652       C  0.81912113  0.59347248  0.70135985     0.00700
C2653       C  0.78716307  0.54950456  0.67093655     0.40000
C2654       C  0.82966572  0.60839663  0.71200366     0.36600
C2655       C  0.79255344  0.61970366  0.65660139     0.36400
C2656       C  0.87486950  0.63257328  0.66034118     0.37100
N2657       N  0.77890229  0.53752229  0.66225530    -0.43700
N2658       N  0.83816561  0.62032079  0.72053091    -0.44100
N2659       N  0.89167817  0.63455433  0.66104415    -0.41500
N2660       N  0.77583160  0.61719499  0.65564177    -0.42900
H2661       H  0.81176923  0.64839209  0.63965855     0.13200
H2662       H  0.85526124  0.60429357  0.67768883     0.09700
H2663       H  0.80604188  0.57930014  0.65524239     0.10800
H2664       H  0.81074084  0.57862291  0.72788898     0.16600
C2665       C  0.81207187  0.69270585  0.57282712    -0.01600
C2666       C  0.81206611  0.71307424  0.56959796     0.07000
C2667       C  0.82150176  0.72539298  0.58302555    -0.07600
C2668       C  0.83153984  0.71768932  0.59916775     0.04400
C2669       C  0.83242810  0.69716557  0.60196689    -0.14800
C2670       C  0.82223049  0.68493322  0.58886794    -0.08100
C2671       C  0.80288085  0.72184286  0.55197782     0.05400
C2672       C  0.78248019  0.72121446  0.54985841    -0.09200
C2673       C  0.77336091  0.72989278  0.53363665     0.00400
C2674       C  0.78482942  0.73929189  0.51912502     0.00200
C2675       C  0.80524350  0.73982208  0.52130781    -0.12800
C2676       C  0.81430244  0.73118817  0.53751408     0.00700
C2677       C  0.75223151  0.72991640  0.53289146     0.40000
C2678       C  0.83537618  0.73191941  0.53889402     0.36600
C2679       C  0.80228623  0.67948253  0.55953587     0.36400
C2680       C  0.84014720  0.73131267  0.61283621     0.37100
N2681       N  0.73530173  0.73002404  0.53234687    -0.43700
N2682       N  0.85226202  0.73251947  0.54002046    -0.44100
N2683       N  0.84685714  0.74247690  0.62367334    -0.41500
N2684       N  0.79436793  0.66892502  0.54890272    -0.42900
H2685       H  0.82258659  0.66917502  0.59084174     0.13200
H2686       H  0.82108684  0.74112358  0.58078861     0.09700
H2687       H  0.77366129  0.71426657  0.56112052     0.10800
H2688       H  0.81418370  0.74699925  0.51028750     0.16600
C2689       C  0.69963935  0.91207566  0.67808278    -0.01600
C2690       C  0.70834020  0.92769698  0.66777381     0.07000
C2691       C  0.70597839  0.92909821  0.64741393    -0.07600
C2692       C  0.69511271  0.91506005  0.63719422     0.04400
C2693       C  0.68655199  0.89926104  0.64748052    -0.14800
C2694       C  0.68873876  0.89809764  0.66791755    -0.08100
C2695       C  0.72001509  0.94267831  0.67805076     0.05400
C2696       C  0.74033039  0.94302408  0.67532524    -0.09200
C2697       C  0.75198781  0.95652427  0.68539765     0.00400
C2698       C  0.74319291  0.96985666  0.69861153     0.00200
C2699       C  0.72277032  0.96952800  0.70108600    -0.12800
C2700       C  0.71116250  0.95625564  0.69077476     0.00700
C2701       C  0.77286846  0.95599192  0.68217329     0.40000
C2702       C  0.69016588  0.95715525  0.69305211     0.36600
C2703       C  0.70222141  0.90978331  0.69898451     0.36400
C2704       C  0.69240955  0.91759873  0.61634637     0.37100
N2705       N  0.78958494  0.95557283  0.67947065    -0.43700
N2706       N  0.67333544  0.95792061  0.69478131    -0.44100
N2707       N  0.69019404  0.91971501  0.59965292    -0.41500
N2708       N  0.70431221  0.90797196  0.71572885    -0.42900
H2709       H  0.68241236  0.88590001  0.67591473     0.13200
H2710       H  0.71253592  0.94125928  0.63954881     0.09700
H2711       H  0.74708860  0.93255914  0.66545619     0.10800
H2712       H  0.71575891  0.97995757  0.71080941     0.16600
C2713       C  0.60592633  0.85310172  0.66791201    -0.01600
C2714       C  0.60266308  0.83276322  0.66702100     0.07000
C2715       C  0.61541325  0.82091230  0.65618346    -0.07600
C2716       C  0.63155924  0.82898201  0.64649316     0.04400
C2717       C  0.63490336  0.84943163  0.64729303    -0.14800
C2718       C  0.62193864  0.86126076  0.65807621    -0.08100
C2719       C  0.58638811  0.82336136  0.67776559     0.05400
C2720       C  0.57073582  0.81549200  0.66710853    -0.09200
C2721       C  0.55554392  0.80559949  0.67666902     0.00400
C2722       C  0.55595029  0.80351443  0.69730124     0.00200
C2723       C  0.57145401  0.81178500  0.70794983    -0.12800
C2724       C  0.58673811  0.82145696  0.69834013     0.00700
C2725       C  0.53955642  0.79813387  0.66500817     0.40000
C2726       C  0.60306785  0.82851498  0.70975705     0.36600
C2727       C  0.59301426  0.86583525  0.67879391     0.36400
C2728       C  0.64498963  0.81574034  0.63691532     0.37100
N2729       N  0.52673997  0.79217397  0.65566299    -0.43700
N2730       N  0.61621415  0.83410909  0.71885957    -0.44100
N2731       N  0.65579754  0.80509465  0.62935625    -0.41500
N2732       N  0.58269003  0.87600646  0.68758088    -0.42900
H2733       H  0.62428444  0.87695378  0.65880989     0.13200
H2734       H  0.61300581  0.80521084  0.65574754     0.09700
H2735       H  0.57047269  0.81700903  0.65127091     0.10800
H2736       H  0.57200240  0.81006511  0.72375729     0.16600
C2737       C  0.68160196  0.82538063  0.56889257    -0.01600
C2738       C  0.70076142  0.82954355  0.56268296     0.07000
C2739       C  0.71151865  0.84418116  0.57211329    -0.07600
C2740       C  0.70360562  0.85454831  0.58792207     0.04400
C2741       C  0.68439571  0.85016646  0.59463178    -0.14800
C2742       C  0.67358967  0.83564546  0.58470436    -0.08100
C2743       C  0.71010698  0.81848713  0.54663266     0.05400
C2744       C  0.70537032  0.82312498  0.52716922    -0.09200
C2745       C  0.71456829  0.81343669  0.51160511     0.00400
C2746       C  0.72854593  0.79880766  0.51561008     0.00200
C2747       C  0.73311109  0.79403590  0.53503918    -0.12800
C2748       C  0.72405800  0.80380350  0.55056960     0.00700
C2749       C  0.70970430  0.81896898  0.49176120     0.40000
C2750       C  0.72934198  0.79857548  0.57039041     0.36600
C2751       C  0.67012050  0.81026914  0.55957853     0.36400
C2752       C  0.71595444  0.86908195  0.59705591     0.37100
N2753       N  0.70568389  0.82354830  0.47592466    -0.43700
N2754       N  0.73365999  0.79435436  0.58624745    -0.44100
N2755       N  0.72598908  0.88069950  0.60423425    -0.41500
N2756       N  0.66094135  0.79814037  0.55211597    -0.42900
H2757       H  0.65885663  0.83205526  0.58939474     0.13200
H2758       H  0.72629771  0.84733660  0.56720376     0.09700
H2759       H  0.69470555  0.83450856  0.52418119     0.10800
H2760       H  0.74391639  0.78277902  0.53805442     0.16600
C2761       C  0.68787493  0.72426113  0.88590807    -0.01600
C2762       C  0.70839679  0.72542923  0.88740125     0.07000
C2763       C  0.72012609  0.71701880  0.87286081    -0.07600
C2764       C  0.71173911  0.70712360  0.85703801     0.04400
C2765       C  0.69115617  0.70546405  0.85566076    -0.14800
C2766       C  0.67939533  0.71444401  0.86999067    -0.08100
C2767       C  0.71812446  0.73436022  0.90452612     0.05400
C2768       C  0.72553345  0.72193661  0.91908568    -0.09200
C2769       C  0.73585431  0.72951194  0.93505449     0.00400
C2770       C  0.73877804  0.74992543  0.93662642     0.00200
C2771       C  0.73103803  0.76239328  0.92218242    -0.12800
C2772       C  0.72096163  0.75473425  0.90603665     0.00700
C2773       C  0.74279929  0.71607761  0.94987616     0.40000
C2774       C  0.71430550  0.76789871  0.89086398     0.36600
C2775       C  0.67535613  0.73242887  0.90087562     0.36400
C2776       C  0.72466195  0.69943231  0.84216730     0.37100
N2777       N  0.74836411  0.70534415  0.96177642    -0.43700
N2778       N  0.70909469  0.77844151  0.87863762    -0.44100
N2779       N  0.73521194  0.69345726  0.83031888    -0.41500
N2780       N  0.66536945  0.73893099  0.91293861    -0.42900
H2781       H  0.66359197  0.71329052  0.86906224     0.13200
H2782       H  0.73592966  0.71808971  0.87398740     0.09700
H2783       H  0.72333752  0.70624751  0.91786576     0.10800
H2784       H  0.73334338  0.77807628  0.92323669     0.16600
C2785       C  0.61247604  0.69377227  0.78272767    -0.01600
C2786       C  0.60792780  0.71386001  0.78293031     0.07000
C2787       C  0.61951028  0.72674703  0.79388726    -0.07600
C2788       C  0.63559671  0.71996160  0.80459016     0.04400
C2789       C  0.64014475  0.69969618  0.80469487    -0.14800
C2790       C  0.62843328  0.68686687  0.79355520    -0.08100
C2791       C  0.59070683  0.72181513  0.77249977     0.05400
C2792       C  0.57509292  0.72897335  0.78369714    -0.09200
C2793       C  0.55902740  0.73786248  0.77470741     0.00400
C2794       C  0.55853823  0.73985715  0.75408195     0.00200
C2795       C  0.57385763  0.73202361  0.74281754    -0.12800
C2796       C  0.58997019  0.72313663  0.75187241     0.00700
C2797       C  0.54307022  0.74438706  0.78698048     0.40000
C2798       C  0.60589048  0.71620583  0.73980347     0.36600
C2799       C  0.60076881  0.67996517  0.77180311     0.36400
C2800       C  0.64742299  0.73434707  0.81461080     0.37100
N2801       N  0.53027668  0.74953840  0.79683629    -0.43700
N2802       N  0.61863844  0.71061270  0.73013303    -0.44100
N2803       N  0.65688314  0.74594532  0.82255983    -0.41500
N2804       N  0.59140829  0.66895228  0.76296026    -0.42900
H2805       H  0.63161983  0.67131666  0.79336862     0.13200
H2806       H  0.61602187  0.74225221  0.79391886     0.09700
H2807       H  0.57555650  0.72771320  0.79955420     0.10800
H2808       H  0.57359805  0.73350941  0.72698071     0.16600
C2809       C  0.72057448  0.63244393  0.80147911    -0.01600
C2810       C  0.70965694  0.61660567  0.79397434     0.07000
C2811       C  0.68920150  0.61671855  0.79583602    -0.07600
C2812       C  0.67951537  0.63265745  0.80434674     0.04400
C2813       C  0.69043609  0.64876053  0.81137829    -0.14800
C2814       C  0.71092935  0.64821588  0.81022194    -0.08100
C2815       C  0.71933661  0.59997522  0.78390066     0.05400
C2816       C  0.73297631  0.58864202  0.79423313    -0.09200
C2817       C  0.74298148  0.57327518  0.78509079     0.00400
C2818       C  0.73930079  0.56895607  0.76509111     0.00200
C2819       C  0.72530625  0.58014933  0.75493549    -0.12800
C2820       C  0.71538427  0.59552598  0.76411120     0.00700
C2821       C  0.75652875  0.56206112  0.79685182     0.40000
C2822       C  0.70160275  0.60684352  0.75273059     0.36600
C2823       C  0.74160792  0.63332421  0.79955849     0.36400
C2824       C  0.65846339  0.63187833  0.80605449     0.37100
N2825       N  0.76734733  0.55314655  0.80638823    -0.43700
N2826       N  0.69051149  0.61584939  0.74360926    -0.44100
N2827       N  0.64159613  0.63116055  0.80743163    -0.41500
N2828       N  0.75845886  0.63407629  0.79802849    -0.42900
H2829       H  0.71944786  0.66051980  0.81544689     0.13200
H2830       H  0.68078485  0.60437301  0.79045241     0.09700
H2831       H  0.73581335  0.59185495  0.80955132     0.10800
H2832       H  0.72226766  0.57711028  0.73962930     0.16600
loop_ 
_geom_bond_atom_site_label_1 
_geom_bond_atom_site_label_2 
_geom_bond_distance 
_geom_bond_site_symmetry_2 
_ccdc_geom_bond_type 
C1            N2   1.357       .  A
C1            N6   1.358       .  A
C1         C2765   1.479       .  S
N2            C3   1.357       .  A
C3            N4   1.356       .  A
C3         C2813   1.477       .  S
N4            C5   1.358       .  A
C5            N6   1.360       .  A
C5         C2789   1.488       .  S
C7            N8   1.356       .  A
C7           N12   1.356       .  A
C7         C2693   1.474       .  S
N8            C9   1.356       .  A
C9           N10   1.357       .  A
C9         C2717   1.481       .  S
N10          C11   1.359       .  A
C11          N12   1.357       .  A
C11        C2741   1.490       .  S
C13          N14   1.354       .  A
C13          N18   1.358       .  A
C13        C2621   1.470       .  S
N14          C15   1.355       .  A
C15          N16   1.359       .  A
C15        C2645   1.487       .  S
N16          C17   1.359       .  A
C17          N18   1.361       .  A
C17        C2669   1.486       .  S
C19          N20   1.360       .  A
C19          N24   1.353       .  A
C19        C2597   1.482       .  S
N20          C21   1.361       .  A
C21          N22   1.360       .  A
C21        C2554   1.481       .  S
N22          C23   1.357       .  A
C23          N24   1.352       .  A
C23        C2573   1.478       .  S
O25         Cu33   2.000       .  S
O25          C35   1.276       .  A
O26         Cu33   2.000   1_554  S
O26          C36   1.278       .  A
O27         Cu33   1.999       .  S
O27          C37   1.277       .  A
O28         Cu33   2.004   1_554  S
O28          C38   1.279       .  A
O29         Cu34   1.987       .  S
O29          C38   1.275   1_556  A
O30         Cu34   1.991       .  S
O30          C37   1.276       .  A
O31         Cu34   2.002   1_554  S
O31          C36   1.276       .  A
O32         Cu34   2.003       .  S
O32          C35   1.278       .  A
Cu33        Cu34   2.372       .  S
C35        C2770   1.474       .  S
C36        C2506   1.480       .  S
C37        C2602   1.470       .  S
C38        C2525   1.485       .  S
O39         Cu47   1.999       .  S
O39          C49   1.276       .  A
O40         Cu47   2.008   1_655  S
O40          C50   1.278       .  A
O41         Cu47   2.012       .  S
O41          C51   1.278       .  A
O42         Cu47   2.010   1_655  S
O42          C52   1.279       .  A
O43         Cu48   2.006   1_655  S
O43          C52   1.277       .  A
O44         Cu48   2.001       .  S
O44          C51   1.277       .  A
O45         Cu48   2.008   1_655  S
O45          C50   1.278       .  A
O46         Cu48   2.009       .  S
O46          C49   1.279       .  A
Cu47        Cu48   2.370       .  S
C49        C2458   1.484       .  S
C50        C2626   1.483       .  S
C51        C2477   1.482       .  S
C52        C2549   1.485       .  S
O53         Cu61   2.000   1_565  S
O53          C63   1.277       .  A
O54         Cu61   2.001       .  S
O54          C64   1.278       .  A
O55         Cu61   2.002   1_565  S
O55          C65   1.277       .  A
O56         Cu61   2.001       .  S
O56          C66   1.277       .  A
O57         Cu62   2.009       .  S
O57          C66   1.278       .  A
O58         Cu62   2.008   1_565  S
O58          C65   1.279       .  A
O59         Cu62   1.994       .  S
O59          C64   1.276       .  A
O60         Cu62   1.992   1_565  S
O60          C63   1.277       .  A
Cu61        Cu62   2.371       .  S
C63        C2698   1.477       .  S
C64        C2405   1.479       .  S
C65        C2578   1.483       .  S
C66        C2434   1.482       .  S
C67          N68   1.355       .  A
C67          N72   1.351       .  A
C67        C2530   1.460       .  S
N68          C69   1.358       .  A
C69          N70   1.362       .  A
C69        C2357   1.486       .  S
N70          C71   1.359       .  A
C71          N72   1.353       .  A
C71        C2386   1.475       .  S
C73          N74   1.358       .  A
C73          N78   1.359       .  A
C73        C2429   1.488       .  S
N74          C75   1.356       .  A
C75          N76   1.356       .  A
C75        C2338   1.472       .  S
N76          C77   1.358       .  A
C77          N78   1.361       .  A
C77        C2314   1.493       .  S
C79          N80   1.358       .  A
C79          N84   1.358       .  A
C79        C2482   1.484       .  S
N80          C81   1.359       .  A
C81          N82   1.358       .  A
C81        C2290   1.489       .  S
N82          C83   1.356       .  A
C83          N84   1.357       .  A
C83        C2261   1.478       .  S
C85          N86   1.356       .  A
C85          N90   1.359       .  A
C85        C2194   1.483       .  S
N86          C87   1.355       .  A
C87          N88   1.357       .  A
C87        C2213   1.480       .  S
N88          C89   1.358       .  A
C89          N90   1.359       .  A
C89        C2237   1.482       .  S
O91         Cu99   2.003       .  S
O91         C101   1.277       .  A
O92         Cu99   2.000   1_655  S
O92         C102   1.277       .  A
O93         Cu99   1.997       .  S
O93         C103   1.276       .  A
O94         Cu99   2.006   1_655  S
O94         C104   1.278       .  A
O95        Cu100   1.999       .  S
O95         C104   1.276   1_455  A
O96        Cu100   1.999       .  S
O96         C103   1.277       .  A
O97        Cu100   1.995   1_655  S
O97         C102   1.276       .  A
O98        Cu100   1.993       .  S
O98         C101   1.277       .  A
Cu99       Cu100   2.375       .  S
C101       C2146   1.475       .  S
C102       C2189   1.471       .  S
C103       C2117   1.473       .  S
C104       C2170   1.473       .  S
C105        N106   1.356       .  A
C105        N110   1.356       .  A
C105       C2501   1.479       .  S
N106        C107   1.356       .  A
C107        N108   1.358       .  A
C107       C2165   1.477       .  S
N108        C109   1.358       .  A
C109        N110   1.357       .  A
C109       C2098   1.485       .  S
C111        N112   1.360       .  A
C111        N116   1.355       .  A
C111       C2021   1.483       .  S
N112        C113   1.357       .  A
C113        N114   1.356       .  A
C113       C2050   1.470       .  S
N114        C115   1.354       .  A
C115        N116   1.355       .  A
C115       C2074   1.473       .  S
O117       Cu125   2.002       .  S
O117        C127   1.277       .  A
O118       Cu125   1.993       .  S
O118        C128   1.276   1_545  A
O119       Cu125   2.019       .  S
O119        C129   1.279       .  A
O120       Cu125   2.019       .  S
O120        C130   1.279   1_545  A
O121       Cu126   1.990       .  S
O121        C130   1.276   1_545  A
O122       Cu126   1.998       .  S
O122        C129   1.276       .  A
O123       Cu126   2.008   1_565  S
O123        C128   1.278       .  A
O124       Cu126   2.001       .  S
O124        C127   1.277       .  A
Cu125      Cu126   2.375       .  S
C127       C1997   1.476       .  S
C128       C2093   1.473       .  S
C129       C1973   1.474       .  S
C130       C2026   1.477       .  S
C131        N132   1.363       .  A
C131        N136   1.360       .  A
C131       C1901   1.498       .  S
N132        C133   1.360       .  A
C133        N134   1.356       .  A
C133       C1925   1.486       .  S
N134        C135   1.354       .  A
C135        N136   1.358       .  A
C135       C1954   1.477       .  S
O137       Cu145   2.026       .  S
O137        C147   1.281       .  A
O138       Cu145   2.030       .  S
O138        C148   1.281   1_545  A
O139       Cu145   2.006       .  S
O139        C149   1.277       .  A
O140       Cu145   2.005       .  S
O140        C150   1.277   1_545  A
O141       Cu146   2.006       .  S
O141        C150   1.277   1_545  A
O142       Cu146   2.003       .  S
O142        C149   1.277       .  A
O143       Cu146   1.996   1_565  S
O143        C148   1.276       .  A
O144       Cu146   1.992       .  S
O144        C147   1.275       .  A
Cu145      Cu146   2.369       .  S
C147       C1858   1.489       .  S
C148       C1882   1.492       .  S
C149       C1829   1.478       .  S
C150       C1906   1.475       .  S
C151        N152   1.360       .  A
C151        N156   1.359       .  A
C151       C1805   1.486       .  S
N152        C153   1.360       .  A
C153        N154   1.355       .  A
C153       C1877   1.478       .  S
N154        C155   1.356       .  A
C155        N156   1.358       .  A
C155       C2453   1.479       .  S
C157        N158   1.355       .  A
C157        N162   1.354       .  A
C157       C1733   1.472       .  S
N158        C159   1.359       .  A
C159        N160   1.361       .  A
C159       C1757   1.486       .  S
N160        C161   1.361       .  A
C161        N162   1.357       .  A
C161       C1781   1.489       .  S
O163       Cu171   2.004   1_554  S
O163        C173   1.277       .  A
O164       Cu171   2.002       .  S
O164        C174   1.277       .  A
O165       Cu171   2.008   1_554  S
O165        C175   1.279       .  A
O166       Cu171   2.015       .  S
O166        C176   1.279       .  A
O167       Cu172   1.998       .  S
O167        C176   1.277       .  A
O168       Cu172   1.997   1_554  S
O168        C175   1.276       .  A
O169       Cu172   2.009       .  S
O169        C174   1.279       .  A
O170       Cu172   2.010   1_554  S
O170        C173   1.278       .  A
Cu171      Cu172   2.368       .  S
C173       C1685   1.481       .  S
C174       C1738   1.491       .  S
C175       C1709   1.484       .  S
C176       C1810   1.483       .  S
C177        N178   1.361       .  A
C177        N182   1.358       .  A
C177       C1618   1.485       .  S
N178        C179   1.359       .  A
C179        N180   1.357       .  A
C179       C1637   1.487       .  S
N180        C181   1.356       .  A
C181        N182   1.356       .  A
C181       C1661   1.469       .  S
O183       Cu191   2.014   1_655  S
O183        C193   1.280       .  A
O184       Cu191   2.019       .  S
O184        C194   1.280       .  A
O185       Cu191   1.985   1_655  S
O185        C195   1.275       .  A
O186       Cu191   1.985       .  S
O186        C196   1.275       .  A
O187       Cu192   2.005       .  S
O187        C196   1.278       .  A
O188       Cu192   2.007   1_655  S
O188        C195   1.278       .  A
O189       Cu192   1.987       .  S
O189        C194   1.276       .  A
O190       Cu192   1.979   1_655  S
O190        C193   1.274       .  A
Cu191      Cu192   2.373       .  S
C193       C1589   1.475       .  S
C194       C1565   1.483       .  S
C195       C1613   1.473       .  S
C196       C1546   1.468       .  S
C197        N198   1.354       .  A
C197        N202   1.356       .  A
C197       C1522   1.474       .  S
N198        C199   1.353       .  A
C199        N200   1.356       .  A
C199       C1594   1.476       .  S
N200        C201   1.357       .  A
C201        N202   1.358       .  A
C201       C2410   1.477       .  S
C203        N204   1.359       .  A
C203        N208   1.356       .  A
C203       C1445   1.483       .  S
N204        C205   1.359       .  A
C205        N206   1.358       .  A
C205       C1493   1.480       .  S
N206        C207   1.357       .  A
C207        N208   1.356       .  A
C207       C1469   1.475       .  S
O209       Cu217   2.002       .  S
O209        C219   1.278   1_556  A
O210       Cu217   2.002       .  S
O210        C220   1.277       .  A
O211       Cu217   2.001       .  S
O211        C221   1.277   1_556  A
O212       Cu217   2.000       .  S
O212        C222   1.277       .  A
O213       Cu218   1.989       .  S
O213        C222   1.276       .  A
O214       Cu218   2.001       .  S
O214        C221   1.277   1_556  A
O215       Cu218   2.006       .  S
O215        C220   1.278       .  A
O216       Cu218   2.004       .  S
O216        C219   1.277   1_556  A
Cu217      Cu218   2.373       .  S
C219       C1397   1.481       .  S
C220       C1450   1.475       .  S
C221       C1421   1.476       .  S
C222       C1517   1.468       .  S
C223        N224   1.358       .  A
C223        N228   1.358       .  A
C223       C1426   1.481       .  S
N224        C225   1.358       .  A
C225        N226   1.356       .  A
C225       C1354   1.481       .  S
N226        C227   1.355       .  A
C227        N228   1.357       .  A
C227       C1373   1.471       .  S
C229        N230   1.358       .  A
C229        N234   1.354       .  A
C229       C1714   1.477       .  S
N230        C231   1.361       .  A
C231        N232   1.360       .  A
C231       C1330   1.496       .  S
N232        C233   1.358       .  A
C233        N234   1.354       .  A
C233       C1301   1.477       .  S
C235        N236   1.356       .  A
C235        N240   1.357       .  A
C235       C2002   1.488       .  S
N236        C237   1.358       .  A
C237        N238   1.358       .  A
C237       C1282   1.488       .  S
N238        C239   1.357       .  A
C239        N240   1.357       .  A
C239       C1253   1.474       .  S
C241        N242   1.356       .  A
C241        N246   1.354       .  A
C241       C1181   1.473       .  S
N242        C243   1.357       .  A
C243        N244   1.359       .  A
C243       C1205   1.487       .  S
N244        C245   1.358       .  A
C245        N246   1.357       .  A
C245       C1229   1.477       .  S
C247        N248   1.359       .  A
C247        N252   1.358       .  A
C247       C1690   1.483       .  S
N248        C249   1.358       .  A
C249        N250   1.356       .  A
C249       C1157   1.486       .  S
N250        C251   1.355       .  A
C251        N252   1.357       .  A
C251       C2141   1.478       .  S
C253        N254   1.358       .  A
C253        N258   1.360       .  A
C253       C1085   1.484       .  S
N254        C255   1.356       .  A
C255        N256   1.356       .  A
C255       C1114   1.478       .  S
N256        C257   1.359       .  A
C257        N258   1.359       .  A
C257       C1133   1.484       .  S
O259       Cu267   2.015   1_565  S
O259        C269   1.279       .  A
O260       Cu267   2.017       .  S
O260        C270   1.280       .  A
O261       Cu267   1.988   1_565  S
O261        C271   1.274       .  A
O262       Cu267   1.987       .  S
O262        C272   1.275       .  A
O263       Cu268   2.013       .  S
O263        C272   1.279       .  A
O264       Cu268   2.023   1_565  S
O264        C271   1.281       .  A
O265       Cu268   1.989       .  S
O265        C270   1.275       .  A
O266       Cu268   1.994   1_565  S
O266        C269   1.275       .  A
Cu267      Cu268   2.370       .  S
C269       C1162   1.475       .  S
C270       C1186   1.483       .  S
C271       C1090   1.487       .  S
C272       C1061   1.479       .  S
C273        N274   1.356       .  A
C273        N278   1.361       .  A
C273       C1853   1.480       .  S
N274        C275   1.355       .  A
C275        N276   1.356       .  A
C275       C1013   1.474       .  S
N276        C277   1.357       .  A
C277        N278   1.362       .  A
C277       C1037   1.482       .  S
C279        N280   1.359       .  A
C279        N284   1.354       .  A
C279       C1570   1.483       .  S
N280        C281   1.362       .  A
C281        N282   1.360       .  A
C281        C965   1.489       .  S
N282        C283   1.357       .  A
C283        N284   1.352       .  A
C283        C989   1.465       .  S
C285        N286   1.359       .  A
C285        N290   1.357       .  A
C285        C893   1.476       .  S
N286        C287   1.358       .  A
C287        N288   1.355       .  A
C287        C946   1.479       .  S
N288        C289   1.356       .  A
C289        N290   1.358       .  A
C289        C917   1.483       .  S
C291        N292   1.360       .  A
C291        N296   1.355       .  A
C291       C1402   1.485       .  S
N292        C293   1.362       .  A
C293        N294   1.360       .  A
C293       C1978   1.498       .  S
N294        C295   1.358       .  A
C295        N296   1.353       .  A
C295        C869   1.480       .  S
C297        N298   1.358       .  A
C297        N302   1.356       .  A
C297        C821   1.474       .  S
N298        C299   1.359       .  A
C299        N300   1.360       .  A
C299        C797   1.495       .  S
N300        C301   1.357       .  A
C301        N302   1.357       .  A
C301        C850   1.487       .  S
O303       Cu311   2.007       .  S
O303        C313   1.278       .  A
O304       Cu311   2.005       .  S
O304        C314   1.277   1_455  A
O305       Cu311   2.003       .  S
O305        C315   1.278       .  A
O306       Cu311   2.008       .  S
O306        C316   1.277   1_455  A
O307       Cu312   2.008       .  S
O307        C316   1.279   1_455  A
O308       Cu312   2.013       .  S
O308        C315   1.278       .  A
O309       Cu312   2.002   1_655  S
O309        C314   1.277       .  A
O310       Cu312   2.000       .  S
O310        C313   1.276       .  A
Cu311      Cu312   2.372       .  S
C313        C773   1.478       .  S
C314        C802   1.473       .  S
C315        C898   1.486       .  S
C316        C874   1.481       .  S
C317        N318   1.355       .  A
C317        N322   1.356       .  A
C317       C2122   1.474       .  S
N318        C319   1.356       .  A
C319        N320   1.357       .  A
C319        C749   1.482       .  S
N320        C321   1.357       .  A
C321        N322   1.357       .  A
C321        C725   1.480       .  S
C323        N324   1.358       .  A
C323        N328   1.356       .  A
C323        C778   1.478       .  S
N324        C325   1.360       .  A
C325        N326   1.358       .  A
C325        C701   1.487       .  S
N326        C327   1.356       .  A
C327        N328   1.355       .  A
C327       C1066   1.477       .  S
C329        N330   1.355       .  A
C329        N334   1.357       .  A
C329        C629   1.480       .  S
N330        C331   1.356       .  A
C331        N332   1.356       .  A
C331        C653   1.480       .  S
N332        C333   1.358       .  A
C333        N334   1.360       .  A
C333        C682   1.486       .  S
C335        N336   1.353       .  A
C335        N340   1.358       .  A
C335       C1834   1.485       .  S
N336        C337   1.354       .  A
C337        N338   1.356       .  A
C337       C1541   1.481       .  S
N338        C339   1.358       .  A
C339        N340   1.359       .  A
C339        C610   1.483       .  S
C341        N342   1.361       .  A
C341        N346   1.358       .  A
C341        C533   1.484       .  S
N342        C343   1.361       .  A
C343        N344   1.357       .  A
C343        C581   1.484       .  S
N344        C345   1.354       .  A
C345        N346   1.356       .  A
C345        C557   1.479       .  S
O347       Cu355   1.999       .  S
O347        C357   1.277       .  A
O348       Cu355   2.004   1_554  S
O348        C358   1.277       .  A
O349       Cu355   2.007       .  S
O349        C359   1.278       .  A
O350       Cu355   2.003   1_554  S
O350        C360   1.277       .  A
O351       Cu356   2.005   1_554  S
O351        C360   1.278       .  A
O352       Cu356   2.015       .  S
O352        C359   1.279       .  A
O353       Cu356   1.999   1_554  S
O353        C358   1.277       .  A
O354       Cu356   2.006       .  S
O354        C357   1.278       .  A
Cu355      Cu356   2.372       .  S
C357        C605   1.480       .  S
C358        C634   1.474       .  S
C359        C538   1.489       .  S
C360        C706   1.476       .  S
O361       Cu369   2.007       .  S
O361        C371   1.279       .  A
O362       Cu369   2.004       .  S
O362        C372   1.278       .  A
O363       Cu369   2.002       .  S
O363        C373   1.276       .  A
O364       Cu369   1.999       .  S
O364        C374   1.277       .  A
O365       Cu370   2.011       .  S
O365        C374   1.278       .  A
O366       Cu370   2.010       .  S
O366        C373   1.279       .  A
O367       Cu370   1.990       .  S
O367        C372   1.275       .  A
O368       Cu370   1.992       .  S
O368        C371   1.275       .  A
Cu369      Cu370   2.369       .  S
C371        C658   1.481       .  S
C372        C730   1.479       .  S
C373        C941   1.489       .  S
C374       C1306   1.484       .  S
O375       Cu383   2.006       .  S
O375        C385   1.277       .  A
O376       Cu383   2.007       .  S
O376        C386   1.278       .  A
O377       Cu383   2.000       .  S
O377        C387   1.276       .  A
O378       Cu383   2.006       .  S
O378        C388   1.279       .  A
O379       Cu384   1.993       .  S
O379        C388   1.275       .  A
O380       Cu384   2.001       .  S
O380        C387   1.276       .  A
O381       Cu384   1.998       .  S
O381        C386   1.276       .  A
O382       Cu384   1.999       .  S
O382        C385   1.277       .  A
Cu383      Cu384   2.375       .  S
C385       C1210   1.473       .  S
C386       C1349   1.476       .  S
C387        C677   1.462       .  S
C388       C1258   1.487       .  S
O389       Cu397   2.003       .  S
O389        C399   1.277       .  A
O390       Cu397   1.999       .  S
O390        C400   1.276       .  A
O391       Cu397   2.010       .  S
O391        C401   1.279       .  A
O392       Cu397   2.006       .  S
O392        C402   1.278       .  A
O393       Cu398   1.987       .  S
O393        C402   1.276       .  A
O394       Cu398   1.987       .  S
O394        C401   1.275       .  A
O395       Cu398   2.000       .  S
O395        C400   1.278       .  A
O396       Cu398   2.003       .  S
O396        C399   1.278       .  A
Cu397      Cu398   2.370       .  S
C399        C970   1.483       .  S
C400       C1234   1.484       .  S
C401       C1018   1.481       .  S
C402        C922   1.475       .  S
O403       Cu411   2.010       .  S
O403        C413   1.278       .  A
O404       Cu411   2.004       .  S
O404        C414   1.278       .  A
O405       Cu411   2.010       .  S
O405        C415   1.278       .  A
O406       Cu411   2.005       .  S
O406        C416   1.277       .  A
O407       Cu412   2.003       .  S
O407        C416   1.276       .  A
O408       Cu412   1.999       .  S
O408        C415   1.277       .  A
O409       Cu412   2.005       .  S
O409        C414   1.277       .  A
O410       Cu412   1.999       .  S
O410        C413   1.277       .  A
Cu411      Cu412   2.372       .  S
C413        C754   1.476       .  S
C414       C1930   1.486       .  S
C415       C1138   1.483       .  S
C416       C2285   1.468       .  S
O417       Cu425   2.011       .  S
O417        C427   1.279       .  A
O418       Cu425   2.000       .  S
O418        C428   1.277       .  A
O419       Cu425   2.003       .  S
O419        C429   1.277       .  A
O420       Cu425   2.002       .  S
O420        C430   1.277       .  A
O421       Cu426   2.008       .  S
O421        C430   1.278       .  A
O422       Cu426   2.014       .  S
O422        C429   1.279       .  A
O423       Cu426   2.014       .  S
O423        C428   1.279       .  A
O424       Cu426   2.012       .  S
O424        C427   1.278       .  A
Cu425      Cu426   2.372       .  S
C427       C1642   1.487       .  S
C428       C1277   1.477       .  S
C429       C2333   1.483       .  S
C430        C845   1.477       .  S
O431       Cu439   2.009       .  S
O431        C441   1.279       .  A
O432       Cu439   2.003       .  S
O432        C442   1.277       .  A
O433       Cu439   1.996       .  S
O433        C443   1.276       .  A
O434       Cu439   1.993       .  S
O434        C444   1.277       .  A
O435       Cu440   2.001       .  S
O435        C444   1.277       .  A
O436       Cu440   2.006       .  S
O436        C443   1.278       .  A
O437       Cu440   2.002       .  S
O437        C442   1.277       .  A
O438       Cu440   1.998       .  S
O438        C441   1.276       .  A
Cu439      Cu440   2.370       .  S
C441       C2266   1.481       .  S
C442        C586   1.485       .  S
C443       C1762   1.475       .  S
C444        C994   1.486       .  S
O445       Cu453   1.995       .  S
O445        C455   1.276       .  A
O446       Cu453   1.999       .  S
O446        C456   1.277       .  A
O447       Cu453   2.006       .  S
O447        C457   1.277       .  A
O448       Cu453   2.005       .  S
O448        C458   1.278       .  A
O449       Cu454   2.000       .  S
O449        C458   1.277       .  A
O450       Cu454   2.005       .  S
O450        C457   1.278       .  A
O451       Cu454   2.004       .  S
O451        C456   1.278       .  A
O452       Cu454   2.001       .  S
O452        C455   1.278       .  A
Cu453      Cu454   2.369       .  S
C455       C1378   1.486       .  S
C456       C2218   1.477       .  S
C457        C826   1.487       .  S
C458       C2362   1.481       .  S
O459       Cu467   1.998       .  S
O459        C469   1.278       .  A
O460       Cu467   1.993       .  S
O460        C470   1.276       .  A
O461       Cu467   1.996       .  S
O461        C471   1.277       .  A
O462       Cu467   1.999       .  S
O462        C472   1.277       .  A
O463       Cu468   2.005       .  S
O463        C472   1.278       .  A
O464       Cu468   2.005       .  S
O464        C471   1.278       .  A
O465       Cu468   2.008       .  S
O465        C470   1.278       .  A
O466       Cu468   2.015       .  S
O466        C469   1.278       .  A
Cu467      Cu468   2.372       .  S
C469       C1042   1.484       .  S
C470       C1474   1.479       .  S
C471        C562   1.480       .  S
C472       C2309   1.477       .  S
O473       Cu481   2.006       .  S
O473        C483   1.279       .  A
O474       Cu481   2.014       .  S
O474        C484   1.278       .  A
O475       Cu481   2.004       .  S
O475        C485   1.277       .  A
O476       Cu481   2.004       .  S
O476        C486   1.277       .  A
O477       Cu482   2.002       .  S
O477        C486   1.278       .  A
O478       Cu482   2.004       .  S
O478        C485   1.277       .  A
O479       Cu482   1.996       .  S
O479        C484   1.277       .  A
O480       Cu482   2.001       .  S
O480        C483   1.277       .  A
Cu481      Cu482   2.373       .  S
C483       C1109   1.479       .  S
C484       C2381   1.483       .  S
C485       C1325   1.474       .  S
C486       C2045   1.480       .  S
O487       Cu495   2.003       .  S
O487        C497   1.276       .  A
O488       Cu495   2.009       .  S
O488        C498   1.279       .  A
O489       Cu495   2.004       .  S
O489        C499   1.277       .  A
O490       Cu495   1.997       .  S
O490        C500   1.277       .  A
O491       Cu496   1.992       .  S
O491        C500   1.276       .  A
O492       Cu496   1.998       .  S
O492        C499   1.277       .  A
O493       Cu496   2.005       .  S
O493        C498   1.277       .  A
O494       Cu496   1.999       .  S
O494        C497   1.276       .  A
Cu495      Cu496   2.374       .  S
C497       C2746   1.462       .  S
C498       C2242   1.488       .  S
C499       C2674   1.478       .  S
C500       C2069   1.473       .  S
O501       Cu509   1.998       .  S
O501        C511   1.276       .  A
O502       Cu509   1.998       .  S
O502        C512   1.276       .  A
O503       Cu509   2.013       .  S
O503        C513   1.279       .  A
O504       Cu509   2.012       .  S
O504        C514   1.279       .  A
O505       Cu510   1.996       .  S
O505        C514   1.276       .  A
O506       Cu510   1.996       .  S
O506        C513   1.276       .  A
O507       Cu510   2.008       .  S
O507        C512   1.279       .  A
O508       Cu510   2.007       .  S
O508        C511   1.279       .  A
Cu509      Cu510   2.369       .  S
C511       C2818   1.485       .  S
C512       C1666   1.486       .  S
C513       C2650   1.480       .  S
C514       C1498   1.482       .  S
O515       Cu523   2.008       .  S
O515        C525   1.278       .  A
O516       Cu523   2.010       .  S
O516        C526   1.278       .  A
O517       Cu523   1.989       .  S
O517        C527   1.276       .  A
O518       Cu523   2.001       .  S
O518        C528   1.277       .  A
O519       Cu524   2.006       .  S
O519        C528   1.278       .  A
O520       Cu524   2.014       .  S
O520        C527   1.279       .  A
O521       Cu524   1.996       .  S
O521        C526   1.276       .  A
O522       Cu524   1.995       .  S
O522        C525   1.276       .  A
Cu523      Cu524   2.375       .  S
C525       C2722   1.475       .  S
C526       C1786   1.473       .  S
C527       C2794   1.475       .  S
C528       C1949   1.477       .  S
C529        C530   1.412       .  A
C529        C534   1.403       .  A
C529        C543   1.444       .  S
C530        C535   1.489       .  S
C530        C531   1.402       .  A
C531        C532   1.398       .  A
C531        H550   1.085       .  S
C532        C533   1.416       .  A
C532        C544   1.444       .  S
C533        C534   1.405       .  A
C534        H549   1.084       .  S
C535        C536   1.403       .  A
C535        C540   1.411       .  A
C536        C537   1.401       .  A
C536        H551   1.085       .  S
C537        C538   1.417       .  A
C537        C541   1.444       .  S
C538        C539   1.407       .  A
C539        C540   1.402       .  A
C539        H552   1.085       .  S
C540        C542   1.444       .  S
C541        N545   1.157       .  T
C542        N546   1.157       .  T
C543        N548   1.157       .  T
C544        N547   1.157       .  T
C553        C554   1.408       .  A
C553        C558   1.399       .  A
C553        C567   1.444       .  S
C554        C559   1.477       .  S
C554        C555   1.399       .  A
C555        C556   1.397       .  A
C555        H574   1.085       .  S
C556        C557   1.416       .  A
C556        C568   1.443       .  S
C557        C558   1.405       .  A
C558        H573   1.085       .  S
C559        C560   1.399       .  A
C559        C564   1.408       .  A
C560        C561   1.396       .  A
C560        H575   1.085       .  S
C561        C562   1.415       .  A
C561        C565   1.444       .  S
C562        C563   1.407       .  A
C563        C564   1.400       .  A
C563        H576   1.085       .  S
C564        C566   1.444       .  S
C565        N569   1.157       .  T
C566        N570   1.157       .  T
C567        N572   1.157       .  T
C568        N571   1.157       .  T
C577        C578   1.409       .  A
C577        C582   1.397       .  A
C577        C591   1.445       .  S
C578        C583   1.484       .  S
C578        C579   1.404       .  A
C579        C580   1.401       .  A
C579        H598   1.085       .  S
C580        C581   1.413       .  A
C580        C592   1.443       .  S
C581        C582   1.407       .  A
C582        H597   1.081       .  S
C583        C584   1.401       .  A
C583        C588   1.411       .  A
C584        C585   1.398       .  A
C584        H599   1.085       .  S
C585        C586   1.416       .  A
C585        C589   1.444       .  S
C586        C587   1.407       .  A
C587        C588   1.399       .  A
C587        H600   1.085       .  S
C588        C590   1.445       .  S
C589        N593   1.157       .  T
C590        N594   1.157       .  T
C591        N596   1.157       .  T
C592        N595   1.157       .  T
C601        C602   1.411       .  A
C601        C606   1.399       .  A
C601        C615   1.444       .  S
C602        C607   1.483       .  S
C602        C603   1.402       .  A
C603        C604   1.399       .  A
C603        H622   1.085       .  S
C604        C605   1.416       .  A
C604        C616   1.445       .  S
C605        C606   1.404       .  A
C606        H621   1.085       .  S
C607        C608   1.402       .  A
C607        C612   1.410       .  A
C608        C609   1.399       .  A
C608        H623   1.085       .  S
C609        C610   1.416       .  A
C609        C613   1.444       .  S
C610        C611   1.407       .  A
C611        C612   1.397       .  A
C611        H624   1.085       .  S
C612        C614   1.445       .  S
C613        N617   1.157       .  T
C614        N618   1.157       .  T
C615        N620   1.157       .  T
C616        N619   1.157       .  T
C625        C626   1.406       .  A
C625        C630   1.397       .  A
C625        C639   1.444       .  S
C626        C631   1.477       .  S
C626        C627   1.401       .  A
C627        C628   1.400       .  A
C627        H646   1.085       .  S
C628        C629   1.414       .  A
C628        C640   1.444       .  S
C629        C630   1.406       .  A
C630        H645   1.085       .  S
C631        C632   1.402       .  A
C631        C636   1.408       .  A
C632        C633   1.400       .  A
C632        H647   1.085       .  S
C633        C634   1.412       .  A
C633        C637   1.444       .  S
C634        C635   1.404       .  A
C635        C636   1.397       .  A
C635        H648   1.084       .  S
C636        C638   1.444       .  S
C637        N641   1.157       .  T
C638        N642   1.157       .  T
C639        N644   1.157       .  T
C640        N643   1.157       .  T
C649        C650   1.409       .  A
C649        C654   1.396       .  A
C649        C663   1.444       .  S
C650        C655   1.480       .  S
C650        C651   1.402       .  A
C651        C652   1.399       .  A
C651        H670   1.085       .  S
C652        C653   1.415       .  A
C652        C664   1.444       .  S
C653        C654   1.405       .  A
C654        H669   1.085       .  S
C655        C656   1.401       .  A
C655        C660   1.409       .  A
C656        C657   1.397       .  A
C656        H671   1.085       .  S
C657        C658   1.417       .  A
C657        C661   1.445       .  S
C658        C659   1.406       .  A
C659        C660   1.398       .  A
C659        H672   1.085       .  S
C660        C662   1.444       .  S
C661        N665   1.157       .  T
C662        N666   1.157       .  T
C663        N668   1.157       .  T
C664        N667   1.157       .  T
C673        C674   1.410       .  A
C673        C678   1.398       .  A
C673        C687   1.444       .  S
C674        C679   1.475       .  S
C674        C675   1.402       .  A
C675        C676   1.399       .  A
C675        H694   1.085       .  S
C676        C677   1.408       .  A
C676        C688   1.444       .  S
C677        C678   1.400       .  A
C678        H693   1.085       .  S
C679        C680   1.399       .  A
C679        C684   1.406       .  A
C680        C681   1.399       .  A
C680        H695   1.085       .  S
C681        C682   1.419       .  A
C681        C685   1.444       .  S
C682        C683   1.408       .  A
C683        C684   1.397       .  A
C683        H696   1.084       .  S
C684        C686   1.444       .  S
C685        N689   1.157       .  T
C686        N690   1.157       .  T
C687        N692   1.157       .  T
C688        N691   1.157       .  T
C697        C698   1.408       .  A
C697        C702   1.399       .  A
C697        C711   1.444       .  S
C698        C703   1.480       .  S
C698        C699   1.400       .  A
C699        C700   1.398       .  A
C699        H718   1.085       .  S
C700        C701   1.418       .  A
C700        C712   1.444       .  S
C701        C702   1.408       .  A
C702        H717   1.083       .  S
C703        C704   1.401       .  A
C703        C708   1.410       .  A
C704        C705   1.398       .  A
C704        H719   1.085       .  S
C705        C706   1.413       .  A
C705        C709   1.444       .  S
C706        C707   1.405       .  A
C707        C708   1.400       .  A
C707        H720   1.085       .  S
C708        C710   1.444       .  S
C709        N713   1.157       .  T
C710        N714   1.157       .  T
C711        N716   1.157       .  T
C712        N715   1.157       .  T
C721        C722   1.409       .  A
C721        C726   1.397       .  A
C721        C735   1.445       .  S
C722        C727   1.479       .  S
C722        C723   1.401       .  A
C723        C724   1.397       .  A
C723        H742   1.085       .  S
C724        C725   1.416       .  A
C724        C736   1.444       .  S
C725        C726   1.406       .  A
C726        H741   1.085       .  S
C727        C728   1.400       .  A
C727        C732   1.410       .  A
C728        C729   1.396       .  A
C728        H743   1.085       .  S
C729        C730   1.417       .  A
C729        C733   1.445       .  S
C730        C731   1.406       .  A
C731        C732   1.398       .  A
C731        H744   1.085       .  S
C732        C734   1.444       .  S
C733        N737   1.157       .  T
C734        N738   1.157       .  T
C735        N740   1.157       .  T
C736        N739   1.157       .  T
C745        C746   1.409       .  A
C745        C750   1.398       .  A
C745        C759   1.444       .  S
C746        C751   1.481       .  S
C746        C747   1.401       .  A
C747        C748   1.398       .  A
C747        H766   1.085       .  S
C748        C749   1.417       .  A
C748        C760   1.445       .  S
C749        C750   1.406       .  A
C750        H765   1.085       .  S
C751        C752   1.402       .  A
C751        C756   1.410       .  A
C752        C753   1.398       .  A
C752        H767   1.085       .  S
C753        C754   1.413       .  A
C753        C757   1.444       .  S
C754        C755   1.404       .  A
C755        C756   1.399       .  A
C755        H768   1.085       .  S
C756        C758   1.444       .  S
C757        N761   1.157       .  T
C758        N762   1.157       .  T
C759        N764   1.157       .  T
C760        N763   1.158       .  T
C769        C770   1.407       .  A
C769        C774   1.398       .  A
C769        C783   1.444       .  S
C770        C775   1.476       .  S
C770        C771   1.400       .  A
C771        C772   1.399       .  A
C771        H790   1.085       .  S
C772        C773   1.415       .  A
C772        C784   1.443       .  S
C773        C774   1.405       .  A
C774        H789   1.085       .  S
C775        C776   1.401       .  A
C775        C780   1.407       .  A
C776        C777   1.398       .  A
C776        H791   1.085       .  S
C777        C778   1.413       .  A
C777        C781   1.444       .  S
C778        C779   1.406       .  A
C779        C780   1.398       .  A
C779        H792   1.083       .  S
C780        C782   1.444       .  S
C781        N785   1.157       .  T
C782        N786   1.157       .  T
C783        N788   1.157       .  T
C784        N787   1.157       .  T
C793        C794   1.405       .  A
C793        C798   1.398       .  A
C793        C807   1.444       .  S
C794        C799   1.479       .  S
C794        C795   1.399       .  A
C795        C796   1.401       .  A
C795        H814   1.085       .  S
C796        C797   1.422       .  A
C796        C808   1.443       .  S
C797        C798   1.411       .  A
C798        H813   1.084       .  S
C799        C800   1.401       .  A
C799        C804   1.409       .  A
C800        C801   1.397       .  A
C800        H815   1.085       .  S
C801        C802   1.411       .  A
C801        C805   1.445       .  S
C802        C803   1.405       .  A
C803        C804   1.402       .  A
C803        H816   1.085       .  S
C804        C806   1.443       .  S
C805        N809   1.157       .  T
C806        N810   1.157       .  T
C807        N812   1.157       .  T
C808        N811   1.157       .  T
C817        C818   1.411       .  A
C817        C822   1.398       .  A
C817        C831   1.444       .  S
C818        C823   1.483       .  S
C818        C819   1.404       .  A
C819        C820   1.401       .  A
C819        H838   1.085       .  S
C820        C821   1.411       .  A
C820        C832   1.444       .  S
C821        C822   1.403       .  A
C822        H837   1.085       .  S
C823        C824   1.402       .  A
C823        C828   1.409       .  A
C824        C825   1.401       .  A
C824        H839   1.085       .  S
C825        C826   1.417       .  A
C825        C829   1.444       .  S
C826        C827   1.408       .  A
C827        C828   1.398       .  A
C827        H840   1.084       .  S
C828        C830   1.444       .  S
C829        N833   1.157       .  T
C830        N834   1.157       .  T
C831        N836   1.157       .  T
C832        N835   1.157       .  T
C841        C842   1.412       .  A
C841        C846   1.401       .  A
C841        C855   1.444       .  S
C842        C847   1.485       .  S
C842        C843   1.403       .  A
C843        C844   1.399       .  A
C843        H862   1.085       .  S
C844        C845   1.413       .  A
C844        C856   1.445       .  S
C845        C846   1.404       .  A
C846        H861   1.085       .  S
C847        C848   1.402       .  A
C847        C852   1.410       .  A
C848        C849   1.400       .  A
C848        H863   1.085       .  S
C849        C850   1.417       .  A
C849        C853   1.444       .  S
C850        C851   1.407       .  A
C851        C852   1.399       .  A
C851        H864   1.084       .  S
C852        C854   1.444       .  S
C853        N857   1.157       .  T
C854        N858   1.157       .  T
C855        N860   1.157       .  T
C856        N859   1.157       .  T
C865        C866   1.408       .  A
C865        C870   1.400       .  A
C865        C879   1.444       .  S
C866        C871   1.480       .  S
C866        C867   1.402       .  A
C867        C868   1.399       .  A
C867        H886   1.085       .  S
C868        C869   1.413       .  A
C868        C880   1.444       .  S
C869        C870   1.407       .  A
C870        H885   1.085       .  S
C871        C872   1.402       .  A
C871        C876   1.408       .  A
C872        C873   1.402       .  A
C872        H887   1.085       .  S
C873        C874   1.416       .  A
C873        C877   1.444       .  S
C874        C875   1.405       .  A
C875        C876   1.398       .  A
C875        H888   1.085       .  S
C876        C878   1.444       .  S
C877        N881   1.157       .  T
C878        N882   1.157       .  T
C879        N884   1.157       .  T
C880        N883   1.157       .  T
C889        C890   1.410       .  A
C889        C894   1.396       .  A
C889        C903   1.444       .  S
C890        C895   1.481       .  S
C890        C891   1.402       .  A
C891        C892   1.403       .  A
C891        H910   1.085       .  S
C892        C893   1.413       .  A
C892        C904   1.444       .  S
C893        C894   1.402       .  A
C894        H909   1.083       .  S
C895        C896   1.401       .  A
C895        C900   1.407       .  A
C896        C897   1.403       .  A
C896        H911   1.085       .  S
C897        C898   1.418       .  A
C897        C901   1.443       .  S
C898        C899   1.407       .  A
C899        C900   1.397       .  A
C899        H912   1.085       .  S
C900        C902   1.444       .  S
C901        N905   1.157       .  T
C902        N906   1.157       .  T
C903        N908   1.157       .  T
C904        N907   1.157       .  T
C913        C914   1.409       .  A
C913        C918   1.398       .  A
C913        C927   1.444       .  S
C914        C919   1.481       .  S
C914        C915   1.401       .  A
C915        C916   1.397       .  A
C915        H934   1.085       .  S
C916        C917   1.419       .  A
C916        C928   1.445       .  S
C917        C918   1.406       .  A
C918        H933   1.085       .  S
C919        C920   1.404       .  A
C919        C924   1.410       .  A
C920        C921   1.398       .  A
C920        H935   1.085       .  S
C921        C922   1.412       .  A
C921        C925   1.444       .  S
C922        C923   1.405       .  A
C923        C924   1.396       .  A
C923        H936   1.085       .  S
C924        C926   1.444       .  S
C925        N929   1.157       .  T
C926        N930   1.157       .  T
C927        N932   1.157       .  T
C928        N931   1.158       .  T
C937        C938   1.411       .  A
C937        C942   1.398       .  A
C937        C951   1.445       .  S
C938        C943   1.490       .  S
C938        C939   1.403       .  A
C939        C940   1.401       .  A
C939        H958   1.085       .  S
C940        C941   1.419       .  A
C940        C952   1.444       .  S
C941        C942   1.406       .  A
C942        H957   1.084       .  S
C943        C944   1.404       .  A
C943        C948   1.413       .  A
C944        C945   1.398       .  A
C944        H959   1.085       .  S
C945        C946   1.412       .  A
C945        C949   1.443       .  S
C946        C947   1.405       .  A
C947        C948   1.400       .  A
C947        H960   1.085       .  S
C948        C950   1.444       .  S
C949        N953   1.157       .  T
C950        N954   1.157       .  T
C951        N956   1.157       .  T
C952        N955   1.158       .  T
C961        C962   1.411       .  A
C961        C966   1.399       .  A
C961        C975   1.444       .  S
C962        C967   1.489       .  S
C962        C963   1.403       .  A
C963        C964   1.400       .  A
C963        H982   1.085       .  S
C964        C965   1.417       .  A
C964        C976   1.443       .  S
C965        C966   1.407       .  A
C966        H981   1.084       .  S
C967        C968   1.403       .  A
C967        C972   1.412       .  A
C968        C969   1.399       .  A
C968        H983   1.085       .  S
C969        C970   1.416       .  A
C969        C973   1.444       .  S
C970        C971   1.405       .  A
C971        C972   1.399       .  A
C971        H984   1.085       .  S
C972        C974   1.444       .  S
C973        N977   1.157       .  T
C974        N978   1.157       .  T
C975        N980   1.157       .  T
C976        N979   1.157       .  T
C985        C986   1.411       .  A
C985        C990   1.395       .  A
C985        C999   1.445       .  S
C986        C991   1.478       .  S
C986        C987   1.404       .  A
C987        C988   1.399       .  A
C987       H1006   1.085       .  S
C988        C989   1.408       .  A
C988       C1000   1.443       .  S
C989        C990   1.401       .  A
C990       H1005   1.085       .  S
C991        C992   1.400       .  A
C991        C996   1.408       .  A
C992        C993   1.398       .  A
C992       H1007   1.085       .  S
C993        C994   1.418       .  A
C993        C997   1.444       .  S
C994        C995   1.409       .  A
C995        C996   1.396       .  A
C995       H1008   1.084       .  S
C996        C998   1.445       .  S
C997       N1001   1.157       .  T
C998       N1002   1.157       .  T
C999       N1004   1.157       .  T
C1000      N1003   1.157       .  T
C1009      C1010   1.409       .  A
C1009      C1014   1.398       .  A
C1009      C1023   1.444       .  S
C1010      C1015   1.477       .  S
C1010      C1011   1.401       .  A
C1011      C1012   1.398       .  A
C1011      H1030   1.085       .  S
C1012      C1013   1.412       .  A
C1012      C1024   1.444       .  S
C1013      C1014   1.404       .  A
C1014      H1029   1.085       .  S
C1015      C1016   1.398       .  A
C1015      C1020   1.408       .  A
C1016      C1017   1.395       .  A
C1016      H1031   1.085       .  S
C1017      C1018   1.418       .  A
C1017      C1021   1.445       .  S
C1018      C1019   1.407       .  A
C1019      C1020   1.400       .  A
C1019      H1032   1.084       .  S
C1020      C1022   1.444       .  S
C1021      N1025   1.157       .  T
C1022      N1026   1.157       .  T
C1023      N1028   1.157       .  T
C1024      N1027   1.157       .  T
C1033      C1034   1.411       .  A
C1033      C1038   1.400       .  A
C1033      C1047   1.444       .  S
C1034      C1039   1.485       .  S
C1034      C1035   1.401       .  A
C1035      C1036   1.400       .  A
C1035      H1054   1.085       .  S
C1036      C1037   1.416       .  A
C1036      C1048   1.444       .  S
C1037      C1038   1.404       .  A
C1038      H1053   1.085       .  S
C1039      C1040   1.404       .  A
C1039      C1044   1.410       .  A
C1040      C1041   1.404       .  A
C1040      H1055   1.085       .  S
C1041      C1042   1.416       .  A
C1041      C1045   1.444       .  S
C1042      C1043   1.405       .  A
C1043      C1044   1.396       .  A
C1043      H1056   1.085       .  S
C1044      C1046   1.444       .  S
C1045      N1049   1.157       .  T
C1046      N1050   1.157       .  T
C1047      N1052   1.157       .  T
C1048      N1051   1.157       .  T
C1057      C1058   1.408       .  A
C1057      C1062   1.398       .  A
C1057      C1071   1.444       .  S
C1058      C1063   1.478       .  S
C1058      C1059   1.402       .  A
C1059      C1060   1.398       .  A
C1059      H1078   1.085       .  S
C1060      C1061   1.414       .  A
C1060      C1072   1.444       .  S
C1061      C1062   1.407       .  A
C1062      H1077   1.085       .  S
C1063      C1064   1.400       .  A
C1063      C1068   1.410       .  A
C1064      C1065   1.396       .  A
C1064      H1079   1.085       .  S
C1065      C1066   1.414       .  A
C1065      C1069   1.444       .  S
C1066      C1067   1.405       .  A
C1067      C1068   1.399       .  A
C1067      H1080   1.085       .  S
C1068      C1070   1.444       .  S
C1069      N1073   1.157       .  T
C1070      N1074   1.157       .  T
C1071      N1076   1.157       .  T
C1072      N1075   1.157       .  T
C1081      C1082   1.410       .  A
C1081      C1086   1.400       .  A
C1081      C1095   1.444       .  S
C1082      C1087   1.484       .  S
C1082      C1083   1.401       .  A
C1083      C1084   1.399       .  A
C1083      H1102   1.085       .  S
C1084      C1085   1.417       .  A
C1084      C1096   1.444       .  S
C1085      C1086   1.406       .  A
C1086      H1101   1.084       .  S
C1087      C1088   1.400       .  A
C1087      C1092   1.410       .  A
C1088      C1089   1.400       .  A
C1088      H1103   1.085       .  S
C1089      C1090   1.420       .  A
C1089      C1093   1.445       .  S
C1090      C1091   1.406       .  A
C1091      C1092   1.400       .  A
C1091      H1104   1.084       .  S
C1092      C1094   1.444       .  S
C1093      N1097   1.158       .  T
C1094      N1098   1.157       .  T
C1095      N1100   1.157       .  T
C1096      N1099   1.157       .  T
C1105      C1106   1.409       .  A
C1105      C1110   1.397       .  A
C1105      C1119   1.444       .  S
C1106      C1111   1.480       .  S
C1106      C1107   1.402       .  A
C1107      C1108   1.402       .  A
C1107      H1126   1.085       .  S
C1108      C1109   1.416       .  A
C1108      C1120   1.445       .  S
C1109      C1110   1.404       .  A
C1110      H1125   1.085       .  S
C1111      C1112   1.401       .  A
C1111      C1116   1.409       .  A
C1112      C1113   1.400       .  A
C1112      H1127   1.085       .  S
C1113      C1114   1.415       .  A
C1113      C1117   1.444       .  S
C1114      C1115   1.404       .  A
C1115      C1116   1.398       .  A
C1115      H1128   1.085       .  S
C1116      C1118   1.444       .  S
C1117      N1121   1.157       .  T
C1118      N1122   1.157       .  T
C1119      N1124   1.157       .  T
C1120      N1123   1.158       .  T
C1129      C1130   1.410       .  A
C1129      C1134   1.395       .  A
C1129      C1143   1.445       .  S
C1130      C1135   1.485       .  S
C1130      C1131   1.404       .  A
C1131      C1132   1.403       .  A
C1131      H1150   1.085       .  S
C1132      C1133   1.416       .  A
C1132      C1144   1.444       .  S
C1133      C1134   1.405       .  A
C1134      H1149   1.083       .  S
C1135      C1136   1.402       .  A
C1135      C1140   1.411       .  A
C1136      C1137   1.399       .  A
C1136      H1151   1.085       .  S
C1137      C1138   1.416       .  A
C1137      C1141   1.445       .  S
C1138      C1139   1.406       .  A
C1139      C1140   1.400       .  A
C1139      H1152   1.085       .  S
C1140      C1142   1.444       .  S
C1141      N1145   1.157       .  T
C1142      N1146   1.157       .  T
C1143      N1148   1.157       .  T
C1144      N1147   1.157       .  T
C1153      C1154   1.409       .  A
C1153      C1158   1.398       .  A
C1153      C1167   1.445       .  S
C1154      C1159   1.481       .  S
C1154      C1155   1.401       .  A
C1155      C1156   1.400       .  A
C1155      H1174   1.085       .  S
C1156      C1157   1.416       .  A
C1156      C1168   1.444       .  S
C1157      C1158   1.408       .  A
C1158      H1173   1.084       .  S
C1159      C1160   1.403       .  A
C1159      C1164   1.410       .  A
C1160      C1161   1.399       .  A
C1160      H1175   1.085       .  S
C1161      C1162   1.410       .  A
C1161      C1165   1.444       .  S
C1162      C1163   1.405       .  A
C1163      C1164   1.400       .  A
C1163      H1176   1.085       .  S
C1164      C1166   1.444       .  S
C1165      N1169   1.157       .  T
C1166      N1170   1.157       .  T
C1167      N1172   1.157       .  T
C1168      N1171   1.157       .  T
C1177      C1178   1.408       .  A
C1177      C1182   1.396       .  A
C1177      C1191   1.444       .  S
C1178      C1183   1.476       .  S
C1178      C1179   1.401       .  A
C1179      C1180   1.400       .  A
C1179      H1198   1.085       .  S
C1180      C1181   1.414       .  A
C1180      C1192   1.444       .  S
C1181      C1182   1.403       .  A
C1182      H1197   1.085       .  S
C1183      C1184   1.398       .  A
C1183      C1188   1.407       .  A
C1184      C1185   1.398       .  A
C1184      H1199   1.085       .  S
C1185      C1186   1.419       .  A
C1185      C1189   1.445       .  S
C1186      C1187   1.407       .  A
C1187      C1188   1.399       .  A
C1187      H1200   1.084       .  S
C1188      C1190   1.444       .  S
C1189      N1193   1.157       .  T
C1190      N1194   1.157       .  T
C1191      N1196   1.157       .  T
C1192      N1195   1.157       .  T
C1201      C1202   1.407       .  A
C1201      C1206   1.399       .  A
C1201      C1215   1.444       .  S
C1202      C1207   1.478       .  S
C1202      C1203   1.399       .  A
C1203      C1204   1.397       .  A
C1203      H1222   1.085       .  S
C1204      C1205   1.419       .  A
C1204      C1216   1.445       .  S
C1205      C1206   1.409       .  A
C1206      H1221   1.084       .  S
C1207      C1208   1.401       .  A
C1207      C1212   1.410       .  A
C1208      C1209   1.398       .  A
C1208      H1223   1.085       .  S
C1209      C1210   1.413       .  A
C1209      C1213   1.444       .  S
C1210      C1211   1.403       .  A
C1211      C1212   1.399       .  A
C1211      H1224   1.085       .  S
C1212      C1214   1.444       .  S
C1213      N1217   1.157       .  T
C1214      N1218   1.157       .  T
C1215      N1220   1.157       .  T
C1216      N1219   1.157       .  T
C1225      C1226   1.408       .  A
C1225      C1230   1.396       .  A
C1225      C1239   1.444       .  S
C1226      C1231   1.478       .  S
C1226      C1227   1.402       .  A
C1227      C1228   1.399       .  A
C1227      H1246   1.085       .  S
C1228      C1229   1.414       .  A
C1228      C1240   1.444       .  S
C1229      C1230   1.405       .  A
C1230      H1245   1.084       .  S
C1231      C1232   1.401       .  A
C1231      C1236   1.407       .  A
C1232      C1233   1.399       .  A
C1232      H1247   1.085       .  S
C1233      C1234   1.418       .  A
C1233      C1237   1.444       .  S
C1234      C1235   1.408       .  A
C1235      C1236   1.396       .  A
C1235      H1248   1.084       .  S
C1236      C1238   1.444       .  S
C1237      N1241   1.157       .  T
C1238      N1242   1.157       .  T
C1239      N1244   1.157       .  T
C1240      N1243   1.157       .  T
C1249      C1250   1.411       .  A
C1249      C1254   1.396       .  A
C1249      C1263   1.445       .  S
C1250      C1255   1.483       .  S
C1250      C1251   1.404       .  A
C1251      C1252   1.400       .  A
C1251      H1270   1.085       .  S
C1252      C1253   1.411       .  A
C1252      C1264   1.444       .  S
C1253      C1254   1.403       .  A
C1254      H1269   1.085       .  S
C1255      C1256   1.401       .  A
C1255      C1260   1.409       .  A
C1256      C1257   1.398       .  A
C1256      H1271   1.085       .  S
C1257      C1258   1.419       .  A
C1257      C1261   1.445       .  S
C1258      C1259   1.408       .  A
C1259      C1260   1.398       .  A
C1259      H1272   1.084       .  S
C1260      C1262   1.444       .  S
C1261      N1265   1.157       .  T
C1262      N1266   1.157       .  T
C1263      N1268   1.157       .  T
C1264      N1267   1.157       .  T
C1273      C1274   1.410       .  A
C1273      C1278   1.399       .  A
C1273      C1287   1.444       .  S
C1274      C1279   1.485       .  S
C1274      C1275   1.404       .  A
C1275      C1276   1.401       .  A
C1275      H1294   1.085       .  S
C1276      C1277   1.412       .  A
C1276      C1288   1.444       .  S
C1277      C1278   1.404       .  A
C1278      H1293   1.085       .  S
C1279      C1280   1.402       .  A
C1279      C1284   1.408       .  A
C1280      C1281   1.401       .  A
C1280      H1295   1.085       .  S
C1281      C1282   1.419       .  A
C1281      C1285   1.445       .  S
C1282      C1283   1.407       .  A
C1283      C1284   1.398       .  A
C1283      H1296   1.084       .  S
C1284      C1286   1.444       .  S
C1285      N1289   1.158       .  T
C1286      N1290   1.157       .  T
C1287      N1292   1.157       .  T
C1288      N1291   1.157       .  T
C1297      C1298   1.408       .  A
C1297      C1302   1.398       .  A
C1297      C1311   1.444       .  S
C1298      C1303   1.480       .  S
C1298      C1299   1.403       .  A
C1299      C1300   1.400       .  A
C1299      H1318   1.085       .  S
C1300      C1301   1.412       .  A
C1300      C1312   1.444       .  S
C1301      C1302   1.405       .  A
C1302      H1317   1.085       .  S
C1303      C1304   1.402       .  A
C1303      C1308   1.407       .  A
C1304      C1305   1.401       .  A
C1304      H1319   1.085       .  S
C1305      C1306   1.416       .  A
C1305      C1309   1.444       .  S
C1306      C1307   1.407       .  A
C1307      C1308   1.398       .  A
C1307      H1320   1.085       .  S
C1308      C1310   1.444       .  S
C1309      N1313   1.157       .  T
C1310      N1314   1.157       .  T
C1311      N1316   1.157       .  T
C1312      N1315   1.157       .  T
C1321      C1322   1.412       .  A
C1321      C1326   1.399       .  A
C1321      C1335   1.444       .  S
C1322      C1327   1.487       .  S
C1322      C1323   1.405       .  A
C1323      C1324   1.400       .  A
C1323      H1342   1.085       .  S
C1324      C1325   1.411       .  A
C1324      C1336   1.445       .  S
C1325      C1326   1.403       .  A
C1326      H1341   1.085       .  S
C1327      C1328   1.401       .  A
C1327      C1332   1.408       .  A
C1328      C1329   1.401       .  A
C1328      H1343   1.085       .  S
C1329      C1330   1.422       .  A
C1329      C1333   1.444       .  S
C1330      C1331   1.411       .  A
C1331      C1332   1.400       .  A
C1331      H1344   1.084       .  S
C1332      C1334   1.444       .  S
C1333      N1337   1.157       .  T
C1334      N1338   1.157       .  T
C1335      N1340   1.157       .  T
C1336      N1339   1.157       .  T
C1345      C1346   1.410       .  A
C1345      C1350   1.399       .  A
C1345      C1359   1.444       .  S
C1346      C1351   1.480       .  S
C1346      C1347   1.401       .  A
C1347      C1348   1.397       .  A
C1347      H1366   1.085       .  S
C1348      C1349   1.414       .  A
C1348      C1360   1.444       .  S
C1349      C1350   1.405       .  A
C1350      H1365   1.085       .  S
C1351      C1352   1.401       .  A
C1351      C1356   1.409       .  A
C1352      C1353   1.397       .  A
C1352      H1367   1.085       .  S
C1353      C1354   1.416       .  A
C1353      C1357   1.444       .  S
C1354      C1355   1.406       .  A
C1355      C1356   1.398       .  A
C1355      H1368   1.085       .  S
C1356      C1358   1.444       .  S
C1357      N1361   1.157       .  T
C1358      N1362   1.157       .  T
C1359      N1364   1.157       .  T
C1360      N1363   1.157       .  T
C1369      C1370   1.412       .  A
C1369      C1374   1.397       .  A
C1369      C1383   1.445       .  S
C1370      C1375   1.481       .  S
C1370      C1371   1.403       .  A
C1371      C1372   1.398       .  A
C1371      H1390   1.085       .  S
C1372      C1373   1.410       .  A
C1372      C1384   1.444       .  S
C1373      C1374   1.402       .  A
C1374      H1389   1.084       .  S
C1375      C1376   1.400       .  A
C1375      C1380   1.409       .  A
C1376      C1377   1.397       .  A
C1376      H1391   1.085       .  S
C1377      C1378   1.419       .  A
C1377      C1381   1.444       .  S
C1378      C1379   1.408       .  A
C1379      C1380   1.398       .  A
C1379      H1392   1.084       .  S
C1380      C1382   1.445       .  S
C1381      N1385   1.157       .  T
C1382      N1386   1.157       .  T
C1383      N1388   1.157       .  T
C1384      N1387   1.157       .  T
C1393      C1394   1.409       .  A
C1393      C1398   1.398       .  A
C1393      C1407   1.444       .  S
C1394      C1399   1.481       .  S
C1394      C1395   1.402       .  A
C1395      C1396   1.399       .  A
C1395      H1414   1.085       .  S
C1396      C1397   1.415       .  A
C1396      C1408   1.444       .  S
C1397      C1398   1.406       .  A
C1398      H1413   1.085       .  S
C1399      C1400   1.399       .  A
C1399      C1404   1.408       .  A
C1400      C1401   1.396       .  A
C1400      H1415   1.085       .  S
C1401      C1402   1.419       .  A
C1401      C1405   1.445       .  S
C1402      C1403   1.407       .  A
C1403      C1404   1.401       .  A
C1403      H1416   1.085       .  S
C1404      C1406   1.444       .  S
C1405      N1409   1.157       .  T
C1406      N1410   1.157       .  T
C1407      N1412   1.157       .  T
C1408      N1411   1.157       .  T
C1417      C1418   1.408       .  A
C1417      C1422   1.400       .  A
C1417      C1431   1.444       .  S
C1418      C1423   1.477       .  S
C1418      C1419   1.400       .  A
C1419      C1420   1.397       .  A
C1419      H1438   1.085       .  S
C1420      C1421   1.414       .  A
C1420      C1432   1.444       .  S
C1421      C1422   1.405       .  A
C1422      H1437   1.085       .  S
C1423      C1424   1.400       .  A
C1423      C1428   1.407       .  A
C1424      C1425   1.399       .  A
C1424      H1439   1.085       .  S
C1425      C1426   1.416       .  A
C1425      C1429   1.444       .  S
C1426      C1427   1.406       .  A
C1427      C1428   1.398       .  A
C1427      H1440   1.084       .  S
C1428      C1430   1.444       .  S
C1429      N1433   1.157       .  T
C1430      N1434   1.157       .  T
C1431      N1436   1.157       .  T
C1432      N1435   1.157       .  T
C1441      C1442   1.407       .  A
C1441      C1446   1.399       .  A
C1441      C1455   1.444       .  S
C1442      C1447   1.478       .  S
C1442      C1443   1.400       .  A
C1443      C1444   1.399       .  A
C1443      H1462   1.085       .  S
C1444      C1445   1.417       .  A
C1444      C1456   1.444       .  S
C1445      C1446   1.407       .  A
C1446      H1461   1.085       .  S
C1447      C1448   1.402       .  A
C1447      C1452   1.409       .  A
C1448      C1449   1.399       .  A
C1448      H1463   1.085       .  S
C1449      C1450   1.412       .  A
C1449      C1453   1.444       .  S
C1450      C1451   1.404       .  A
C1451      C1452   1.399       .  A
C1451      H1464   1.085       .  S
C1452      C1454   1.444       .  S
C1453      N1457   1.157       .  T
C1454      N1458   1.157       .  T
C1455      N1460   1.157       .  T
C1456      N1459   1.157       .  T
C1465      C1466   1.410       .  A
C1465      C1470   1.398       .  A
C1465      C1479   1.444       .  S
C1466      C1471   1.480       .  S
C1466      C1467   1.402       .  A
C1467      C1468   1.398       .  A
C1467      H1486   1.085       .  S
C1468      C1469   1.412       .  A
C1468      C1480   1.444       .  S
C1469      C1470   1.404       .  A
C1470      H1485   1.083       .  S
C1471      C1472   1.402       .  A
C1471      C1476   1.410       .  A
C1472      C1473   1.398       .  A
C1472      H1487   1.085       .  S
C1473      C1474   1.414       .  A
C1473      C1477   1.444       .  S
C1474      C1475   1.406       .  A
C1475      C1476   1.397       .  A
C1475      H1488   1.085       .  S
C1476      C1478   1.444       .  S
C1477      N1481   1.157       .  T
C1478      N1482   1.157       .  T
C1479      N1484   1.157       .  T
C1480      N1483   1.157       .  T
C1489      C1490   1.410       .  A
C1489      C1494   1.398       .  A
C1489      C1503   1.444       .  S
C1490      C1495   1.483       .  S
C1490      C1491   1.402       .  A
C1491      C1492   1.400       .  A
C1491      H1510   1.085       .  S
C1492      C1493   1.414       .  A
C1492      C1504   1.444       .  S
C1493      C1494   1.404       .  A
C1494      H1509   1.084       .  S
C1495      C1496   1.402       .  A
C1495      C1500   1.410       .  A
C1496      C1497   1.400       .  A
C1496      H1511   1.085       .  S
C1497      C1498   1.416       .  A
C1497      C1501   1.445       .  S
C1498      C1499   1.405       .  A
C1499      C1500   1.399       .  A
C1499      H1512   1.085       .  S
C1500      C1502   1.444       .  S
C1501      N1505   1.157       .  T
C1502      N1506   1.157       .  T
C1503      N1508   1.157       .  T
C1504      N1507   1.157       .  T
C1513      C1514   1.406       .  A
C1513      C1518   1.395       .  A
C1513      C1527   1.444       .  S
C1514      C1519   1.471       .  S
C1514      C1515   1.401       .  A
C1515      C1516   1.397       .  A
C1515      H1534   1.085       .  S
C1516      C1517   1.411       .  A
C1516      C1528   1.445       .  S
C1517      C1518   1.404       .  A
C1518      H1533   1.085       .  S
C1519      C1520   1.401       .  A
C1519      C1524   1.405       .  A
C1520      C1521   1.398       .  A
C1520      H1535   1.085       .  S
C1521      C1522   1.414       .  A
C1521      C1525   1.444       .  S
C1522      C1523   1.405       .  A
C1523      C1524   1.394       .  A
C1523      H1536   1.085       .  S
C1524      C1526   1.444       .  S
C1525      N1529   1.157       .  T
C1526      N1530   1.157       .  T
C1527      N1532   1.157       .  T
C1528      N1531   1.157       .  T
C1537      C1538   1.408       .  A
C1537      C1542   1.395       .  A
C1537      C1551   1.445       .  S
C1538      C1543   1.477       .  S
C1538      C1539   1.401       .  A
C1539      C1540   1.398       .  A
C1539      H1558   1.085       .  S
C1540      C1541   1.416       .  A
C1540      C1552   1.444       .  S
C1541      C1542   1.407       .  A
C1542      H1557   1.084       .  S
C1543      C1544   1.403       .  A
C1543      C1548   1.410       .  A
C1544      C1545   1.398       .  A
C1544      H1559   1.085       .  S
C1545      C1546   1.411       .  A
C1545      C1549   1.444       .  S
C1546      C1547   1.401       .  A
C1547      C1548   1.394       .  A
C1547      H1560   1.085       .  S
C1548      C1550   1.444       .  S
C1549      N1553   1.157       .  T
C1550      N1554   1.157       .  T
C1551      N1556   1.157       .  T
C1552      N1555   1.157       .  T
C1561      C1562   1.410       .  A
C1561      C1566   1.396       .  A
C1561      C1575   1.445       .  S
C1562      C1567   1.487       .  S
C1562      C1563   1.405       .  A
C1563      C1564   1.402       .  A
C1563      H1582   1.085       .  S
C1564      C1565   1.414       .  A
C1564      C1576   1.444       .  S
C1565      C1566   1.406       .  A
C1566      H1581   1.085       .  S
C1567      C1568   1.405       .  A
C1567      C1572   1.410       .  A
C1568      C1569   1.401       .  A
C1568      H1583   1.085       .  S
C1569      C1570   1.413       .  A
C1569      C1573   1.444       .  S
C1570      C1571   1.407       .  A
C1571      C1572   1.397       .  A
C1571      H1584   1.085       .  S
C1572      C1574   1.445       .  S
C1573      N1577   1.157       .  T
C1574      N1578   1.157       .  T
C1575      N1580   1.157       .  T
C1576      N1579   1.157       .  T
C1585      C1586   1.409       .  A
C1585      C1590   1.398       .  A
C1585      C1599   1.444       .  S
C1586      C1591   1.476       .  S
C1586      C1587   1.399       .  A
C1587      C1588   1.395       .  A
C1587      H1606   1.085       .  S
C1588      C1589   1.416       .  A
C1588      C1600   1.445       .  S
C1589      C1590   1.404       .  A
C1590      H1605   1.085       .  S
C1591      C1592   1.400       .  A
C1591      C1596   1.408       .  A
C1592      C1593   1.396       .  A
C1592      H1607   1.085       .  S
C1593      C1594   1.416       .  A
C1593      C1597   1.445       .  S
C1594      C1595   1.405       .  A
C1595      C1596   1.397       .  A
C1595      H1608   1.085       .  S
C1596      C1598   1.444       .  S
C1597      N1601   1.157       .  T
C1598      N1602   1.157       .  T
C1599      N1604   1.157       .  T
C1600      N1603   1.157       .  T
C1609      C1610   1.408       .  A
C1609      C1614   1.395       .  A
C1609      C1623   1.444       .  S
C1610      C1615   1.477       .  S
C1610      C1611   1.403       .  A
C1611      C1612   1.399       .  A
C1611      H1630   1.085       .  S
C1612      C1613   1.412       .  A
C1612      C1624   1.444       .  S
C1613      C1614   1.405       .  A
C1614      H1629   1.085       .  S
C1615      C1616   1.399       .  A
C1615      C1620   1.406       .  A
C1616      C1617   1.398       .  A
C1616      H1631   1.085       .  S
C1617      C1618   1.418       .  A
C1617      C1621   1.442       .  S
C1618      C1619   1.408       .  A
C1619      C1620   1.398       .  A
C1619      H1632   1.084       .  S
C1620      C1622   1.444       .  S
C1621      N1625   1.157       .  T
C1622      N1626   1.157       .  T
C1623      N1628   1.157       .  T
C1624      N1627   1.157   1_655  T
C1633      C1634   1.411       .  A
C1633      C1638   1.401       .  A
C1633      C1647   1.444       .  S
C1634      C1639   1.489       .  S
C1634      C1635   1.403       .  A
C1635      C1636   1.400       .  A
C1635      H1654   1.085       .  S
C1636      C1637   1.417       .  A
C1636      C1648   1.444       .  S
C1637      C1638   1.407       .  A
C1638      H1653   1.085       .  S
C1639      C1640   1.403       .  A
C1639      C1644   1.411       .  A
C1640      C1641   1.401       .  A
C1640      H1655   1.085       .  S
C1641      C1642   1.415       .  A
C1641      C1645   1.444       .  S
C1642      C1643   1.407       .  A
C1643      C1644   1.401       .  A
C1643      H1656   1.085       .  S
C1644      C1646   1.444       .  S
C1645      N1649   1.157       .  T
C1646      N1650   1.157       .  T
C1647      N1652   1.157       .  T
C1648      N1651   1.157       .  T
C1657      C1658   1.409       .  A
C1657      C1662   1.398       .  A
C1657      C1671   1.444       .  S
C1658      C1663   1.476       .  S
C1658      C1659   1.401       .  A
C1659      C1660   1.399       .  A
C1659      H1678   1.085       .  S
C1660      C1661   1.409       .  A
C1660      C1672   1.443       .  S
C1661      C1662   1.402       .  A
C1662      H1677   1.085       .  S
C1663      C1664   1.398       .  A
C1663      C1668   1.407       .  A
C1664      C1665   1.398       .  A
C1664      H1679   1.085       .  S
C1665      C1666   1.419       .  A
C1665      C1669   1.444       .  S
C1666      C1667   1.408       .  A
C1667      C1668   1.399       .  A
C1667      H1680   1.084       .  S
C1668      C1670   1.444       .  S
C1669      N1673   1.157       .  T
C1670      N1674   1.157       .  T
C1671      N1676   1.157       .  T
C1672      N1675   1.157       .  T
C1681      C1682   1.410       .  A
C1681      C1686   1.400       .  A
C1681      C1695   1.444       .  S
C1682      C1687   1.483       .  S
C1682      C1683   1.402       .  A
C1683      C1684   1.400       .  A
C1683      H1702   1.085       .  S
C1684      C1685   1.413       .  A
C1684      C1696   1.444       .  S
C1685      C1686   1.406       .  A
C1686      H1701   1.085       .  S
C1687      C1688   1.402       .  A
C1687      C1692   1.409       .  A
C1688      C1689   1.400       .  A
C1688      H1703   1.085       .  S
C1689      C1690   1.415       .  A
C1689      C1693   1.444       .  S
C1690      C1691   1.406       .  A
C1691      C1692   1.399       .  A
C1691      H1704   1.085       .  S
C1692      C1694   1.444       .  S
C1693      N1697   1.157       .  T
C1694      N1698   1.157       .  T
C1695      N1700   1.157       .  T
C1696      N1699   1.157   1_554  T
C1705      C1706   1.408       .  A
C1705      C1710   1.399       .  A
C1705      C1719   1.444       .  S
C1706      C1711   1.478       .  S
C1706      C1707   1.399       .  A
C1707      C1708   1.398       .  A
C1707      H1726   1.085       .  S
C1708      C1709   1.417       .  A
C1708      C1720   1.444       .  S
C1709      C1710   1.407       .  A
C1710      H1725   1.085       .  S
C1711      C1712   1.402       .  A
C1711      C1716   1.409       .  A
C1712      C1713   1.400       .  A
C1712      H1727   1.085       .  S
C1713      C1714   1.413       .  A
C1713      C1717   1.444       .  S
C1714      C1715   1.405       .  A
C1715      C1716   1.397       .  A
C1715      H1728   1.085       .  S
C1716      C1718   1.444       .  S
C1717      N1721   1.157       .  T
C1718      N1722   1.157       .  T
C1719      N1724   1.157       .  T
C1720      N1723   1.157       .  T
C1729      C1730   1.412       .  A
C1729      C1734   1.397       .  A
C1729      C1743   1.445       .  S
C1730      C1735   1.484       .  S
C1730      C1731   1.405       .  A
C1731      C1732   1.401       .  A
C1731      H1750   1.085       .  S
C1732      C1733   1.410       .  A
C1732      C1744   1.444       .  S
C1733      C1734   1.402       .  A
C1734      H1749   1.084       .  S
C1735      C1736   1.400       .  A
C1735      C1740   1.409       .  A
C1736      C1737   1.399       .  A
C1736      H1751   1.085       .  S
C1737      C1738   1.420       .  A
C1737      C1741   1.444       .  S
C1738      C1739   1.409       .  A
C1739      C1740   1.400       .  A
C1739      H1752   1.084       .  S
C1740      C1742   1.445       .  S
C1741      N1745   1.157       .  T
C1742      N1746   1.157       .  T
C1743      N1748   1.157       .  T
C1744      N1747   1.157       .  T
C1753      C1754   1.409       .  A
C1753      C1758   1.398       .  A
C1753      C1767   1.445       .  S
C1754      C1759   1.482       .  S
C1754      C1755   1.401       .  A
C1755      C1756   1.399       .  A
C1755      H1774   1.085       .  S
C1756      C1757   1.416       .  A
C1756      C1768   1.443       .  S
C1757      C1758   1.408       .  A
C1758      H1773   1.084       .  S
C1759      C1760   1.403       .  A
C1759      C1764   1.410       .  A
C1760      C1761   1.398       .  A
C1760      H1775   1.085       .  S
C1761      C1762   1.411       .  A
C1761      C1765   1.444       .  S
C1762      C1763   1.405       .  A
C1763      C1764   1.399       .  A
C1763      H1776   1.085       .  S
C1764      C1766   1.444       .  S
C1765      N1769   1.157       .  T
C1766      N1770   1.157       .  T
C1767      N1772   1.157       .  T
C1768      N1771   1.157       .  T
C1777      C1778   1.407       .  A
C1777      C1782   1.400       .  A
C1777      C1791   1.444       .  S
C1778      C1783   1.478       .  S
C1778      C1779   1.398       .  A
C1779      C1780   1.397       .  A
C1779      H1798   1.085       .  S
C1780      C1781   1.420       .  A
C1780      C1792   1.444       .  S
C1781      C1782   1.409       .  A
C1782      H1797   1.083       .  S
C1783      C1784   1.401       .  A
C1783      C1788   1.409       .  A
C1784      C1785   1.398       .  A
C1784      H1799   1.085       .  S
C1785      C1786   1.412       .  A
C1785      C1789   1.444       .  S
C1786      C1787   1.404       .  A
C1787      C1788   1.400       .  A
C1787      H1800   1.084       .  S
C1788      C1790   1.444       .  S
C1789      N1793   1.157       .  T
C1790      N1794   1.157       .  T
C1791      N1796   1.157       .  T
C1792      N1795   1.157       .  T
C1801      C1802   1.409       .  A
C1801      C1806   1.400       .  A
C1801      C1815   1.444       .  S
C1802      C1807   1.485       .  S
C1802      C1803   1.402       .  A
C1803      C1804   1.401       .  A
C1803      H1822   1.085       .  S
C1804      C1805   1.416       .  A
C1804      C1816   1.444       .  S
C1805      C1806   1.407       .  A
C1806      H1821   1.085       .  S
C1807      C1808   1.401       .  A
C1807      C1812   1.411       .  A
C1808      C1809   1.399       .  A
C1808      H1823   1.085       .  S
C1809      C1810   1.415       .  A
C1809      C1813   1.445       .  S
C1810      C1811   1.405       .  A
C1811      C1812   1.401       .  A
C1811      H1824   1.085       .  S
C1812      C1814   1.444       .  S
C1813      N1817   1.157       .  T
C1814      N1818   1.157       .  T
C1815      N1820   1.157       .  T
C1816      N1819   1.157       .  T
C1825      C1826   1.411       .  A
C1825      C1830   1.399       .  A
C1825      C1839   1.445       .  S
C1826      C1831   1.481       .  S
C1826      C1827   1.401       .  A
C1827      C1828   1.398       .  A
C1827      H1846   1.085       .  S
C1828      C1829   1.413       .  A
C1828      C1840   1.443       .  S
C1829      C1830   1.405       .  A
C1830      H1845   1.085       .  S
C1831      C1832   1.399       .  A
C1831      C1836   1.409       .  A
C1832      C1833   1.397       .  A
C1832      H1847   1.085       .  S
C1833      C1834   1.419       .  A
C1833      C1837   1.445       .  S
C1834      C1835   1.407       .  A
C1835      C1836   1.399       .  A
C1835      H1848   1.084       .  S
C1836      C1838   1.444       .  S
C1837      N1841   1.157       .  T
C1838      N1842   1.157       .  T
C1839      N1844   1.157       .  T
C1840      N1843   1.157       .  T
C1849      C1850   1.410       .  A
C1849      C1854   1.398       .  A
C1849      C1863   1.444       .  S
C1850      C1855   1.485       .  S
C1850      C1851   1.404       .  A
C1851      C1852   1.403       .  A
C1851      H1870   1.085       .  S
C1852      C1853   1.413       .  A
C1852      C1864   1.444       .  S
C1853      C1854   1.405       .  A
C1854      H1869   1.085       .  S
C1855      C1856   1.399       .  A
C1855      C1860   1.411       .  A
C1856      C1857   1.400       .  A
C1856      H1871   1.085       .  S
C1857      C1858   1.420       .  A
C1857      C1861   1.445       .  S
C1858      C1859   1.406       .  A
C1859      C1860   1.401       .  A
C1859      H1872   1.084       .  S
C1860      C1862   1.444       .  S
C1861      N1865   1.157       .  T
C1862      N1866   1.157       .  T
C1863      N1868   1.157       .  T
C1864      N1867   1.157       .  T
C1873      C1874   1.410       .  A
C1873      C1878   1.401       .  A
C1873      C1887   1.443       .  S
C1874      C1879   1.484       .  S
C1874      C1875   1.403       .  A
C1875      C1876   1.400       .  A
C1875      H1894   1.085       .  S
C1876      C1877   1.412       .  A
C1876      C1888   1.444       .  S
C1877      C1878   1.405       .  A
C1878      H1893   1.085       .  S
C1879      C1880   1.398       .  A
C1879      C1884   1.410       .  A
C1880      C1881   1.398       .  A
C1880      H1895   1.085       .  S
C1881      C1882   1.420       .  A
C1881      C1885   1.444       .  S
C1882      C1883   1.409       .  A
C1883      C1884   1.405       .  A
C1883      H1896   1.084       .  S
C1884      C1886   1.444       .  S
C1885      N1889   1.157       .  T
C1886      N1890   1.157       .  T
C1887      N1892   1.157       .  T
C1888      N1891   1.157       .  T
C1897      C1898   1.409       .  A
C1897      C1902   1.401       .  A
C1897      C1911   1.444       .  S
C1898      C1903   1.488       .  S
C1898      C1899   1.400       .  A
C1899      C1900   1.400       .  A
C1899      H1918   1.085       .  S
C1900      C1901   1.422       .  A
C1900      C1912   1.443       .  S
C1901      C1902   1.410       .  A
C1902      H1917   1.084       .  S
C1903      C1904   1.405       .  A
C1903      C1908   1.413       .  A
C1904      C1905   1.400       .  A
C1904      H1919   1.085       .  S
C1905      C1906   1.410       .  A
C1905      C1909   1.444       .  S
C1906      C1907   1.403       .  A
C1907      C1908   1.400       .  A
C1907      H1920   1.085       .  S
C1908      C1910   1.444       .  S
C1909      N1913   1.157       .  T
C1910      N1914   1.157       .  T
C1911      N1916   1.157       .  T
C1912      N1915   1.157       .  T
C1921      C1922   1.411       .  A
C1921      C1926   1.398       .  A
C1921      C1935   1.444       .  S
C1922      C1927   1.490       .  S
C1922      C1923   1.405       .  A
C1923      C1924   1.402       .  A
C1923      H1942   1.085       .  S
C1924      C1925   1.415       .  A
C1924      C1936   1.444       .  S
C1925      C1926   1.406       .  A
C1926      H1941   1.085       .  S
C1927      C1928   1.404       .  A
C1927      C1932   1.411       .  A
C1928      C1929   1.400       .  A
C1928      H1943   1.085       .  S
C1929      C1930   1.417       .  A
C1929      C1933   1.444       .  S
C1930      C1931   1.407       .  A
C1931      C1932   1.400       .  A
C1931      H1944   1.085       .  S
C1932      C1934   1.444       .  S
C1933      N1937   1.157       .  T
C1934      N1938   1.157       .  T
C1935      N1940   1.157       .  T
C1936      N1939   1.157       .  T
C1945      C1946   1.408       .  A
C1945      C1950   1.398       .  A
C1945      C1959   1.444       .  S
C1946      C1951   1.477       .  S
C1946      C1947   1.400       .  A
C1947      C1948   1.400       .  A
C1947      H1966   1.085       .  S
C1948      C1949   1.415       .  A
C1948      C1960   1.445       .  S
C1949      C1950   1.404       .  A
C1950      H1965   1.085       .  S
C1951      C1952   1.400       .  A
C1951      C1956   1.408       .  A
C1952      C1953   1.399       .  A
C1952      H1967   1.085       .  S
C1953      C1954   1.412       .  A
C1953      C1957   1.443       .  S
C1954      C1955   1.405       .  A
C1955      C1956   1.400       .  A
C1955      H1968   1.085       .  S
C1956      C1958   1.444       .  S
C1957      N1961   1.157       .  T
C1958      N1962   1.157       .  T
C1959      N1964   1.157       .  T
C1960      N1963   1.157       .  T
C1969      C1970   1.414       .  A
C1969      C1974   1.400       .  A
C1969      C1983   1.444       .  S
C1970      C1975   1.489       .  S
C1970      C1971   1.405       .  A
C1971      C1972   1.401       .  A
C1971      H1990   1.085       .  S
C1972      C1973   1.409       .  A
C1972      C1984   1.443       .  S
C1973      C1974   1.402       .  A
C1974      H1989   1.085       .  S
C1975      C1976   1.401       .  A
C1975      C1980   1.409       .  A
C1976      C1977   1.400       .  A
C1976      H1991   1.085       .  S
C1977      C1978   1.421       .  A
C1977      C1981   1.444       .  S
C1978      C1979   1.411       .  A
C1979      C1980   1.401       .  A
C1979      H1992   1.084       .  S
C1980      C1982   1.444       .  S
C1981      N1985   1.157       .  T
C1982      N1986   1.157       .  T
C1983      N1988   1.157       .  T
C1984      N1987   1.157       .  T
C1993      C1994   1.411       .  A
C1993      C1998   1.398       .  A
C1993      C2007   1.444       .  S
C1994      C1999   1.484       .  S
C1994      C1995   1.404       .  A
C1995      C1996   1.399       .  A
C1995      H2014   1.085       .  S
C1996      C1997   1.412       .  A
C1996      C2008   1.444       .  S
C1997      C1998   1.404       .  A
C1998      H2013   1.085       .  S
C1999      C2000   1.401       .  A
C1999      C2004   1.409       .  A
C2000      C2001   1.398       .  A
C2000      H2015   1.085       .  S
C2001      C2002   1.419       .  A
C2001      C2005   1.444       .  S
C2002      C2003   1.408       .  A
C2003      C2004   1.399       .  A
C2003      H2016   1.084       .  S
C2004      C2006   1.445       .  S
C2005      N2009   1.157       .  T
C2006      N2010   1.157       .  T
C2007      N2012   1.157       .  T
C2008      N2011   1.157       .  T
C2017      C2018   1.409       .  A
C2017      C2022   1.395       .  A
C2017      C2031   1.444       .  S
C2018      C2023   1.480       .  S
C2018      C2019   1.401       .  A
C2019      C2020   1.401       .  A
C2019      H2038   1.085       .  S
C2020      C2021   1.418       .  A
C2020      C2032   1.445       .  S
C2021      C2022   1.405       .  A
C2022      H2037   1.084       .  S
C2023      C2024   1.399       .  A
C2023      C2028   1.411       .  A
C2024      C2025   1.395       .  A
C2024      H2039   1.085       .  S
C2025      C2026   1.414       .  A
C2025      C2029   1.445   1_565  S
C2026      C2027   1.405       .  A
C2027      C2028   1.403       .  A
C2027      H2040   1.085       .  S
C2028      C2030   1.444       .  S
C2029      N2033   1.157       .  T
C2030      N2034   1.157       .  T
C2031      N2036   1.157       .  T
C2032      N2035   1.157       .  T
C2041      C2042   1.407       .  A
C2041      C2046   1.397       .  A
C2041      C2055   1.444       .  S
C2042      C2047   1.474       .  S
C2042      C2043   1.400       .  A
C2043      C2044   1.400       .  A
C2043      H2062   1.085       .  S
C2044      C2045   1.415       .  A
C2044      C2056   1.444       .  S
C2045      C2046   1.406       .  A
C2046      H2061   1.085       .  S
C2047      C2048   1.399       .  A
C2047      C2052   1.409       .  A
C2048      C2049   1.395       .  A
C2048      H2063   1.085       .  S
C2049      C2050   1.412       .  A
C2049      C2053   1.445       .  S
C2050      C2051   1.403       .  A
C2051      C2052   1.402       .  A
C2051      H2064   1.085       .  S
C2052      C2054   1.443       .  S
C2053      N2057   1.157       .  T
C2054      N2058   1.157       .  T
C2055      N2060   1.157       .  T
C2056      N2059   1.157       .  T
C2065      C2066   1.408       .  A
C2065      C2070   1.397       .  A
C2065      C2079   1.444       .  S
C2066      C2071   1.475       .  S
C2066      C2067   1.400       .  A
C2067      C2068   1.395       .  A
C2067      H2086   1.085       .  S
C2068      C2069   1.414       .  A
C2068      C2080   1.445       .  S
C2069      C2070   1.405       .  A
C2070      H2085   1.085       .  S
C2071      C2072   1.402       .  A
C2071      C2076   1.408       .  A
C2072      C2073   1.399       .  A
C2072      H2087   1.085       .  S
C2073      C2074   1.413       .  A
C2073      C2077   1.444       .  S
C2074      C2075   1.404       .  A
C2075      C2076   1.393       .  A
C2075      H2088   1.085       .  S
C2076      C2078   1.445       .  S
C2077      N2081   1.157       .  T
C2078      N2082   1.157       .  T
C2079      N2084   1.157       .  T
C2080      N2083   1.157       .  T
C2089      C2090   1.409       .  A
C2089      C2094   1.398       .  A
C2089      C2103   1.444       .  S
C2090      C2095   1.479       .  S
C2090      C2091   1.403       .  A
C2091      C2092   1.399       .  A
C2091      H2110   1.085       .  S
C2092      C2093   1.411       .  A
C2092      C2104   1.444       .  S
C2093      C2094   1.404       .  A
C2094      H2109   1.084       .  S
C2095      C2096   1.401       .  A
C2095      C2100   1.407       .  A
C2096      C2097   1.400       .  A
C2096      H2111   1.085       .  S
C2097      C2098   1.418       .  A
C2097      C2101   1.444       .  S
C2098      C2099   1.408       .  A
C2099      C2100   1.398       .  A
C2099      H2112   1.085       .  S
C2100      C2102   1.444       .  S
C2101      N2105   1.157       .  T
C2102      N2106   1.157       .  T
C2103      N2108   1.157       .  T
C2104      N2107   1.157       .  T
C2113      C2114   1.409       .  A
C2113      C2118   1.398       .  A
C2113      C2127   1.445       .  S
C2114      C2119   1.474       .  S
C2114      C2115   1.400       .  A
C2115      C2116   1.397       .  A
C2115      H2134   1.085       .  S
C2116      C2117   1.413       .  A
C2116      C2128   1.444       .  S
C2117      C2118   1.404       .  A
C2118      H2133   1.085       .  S
C2119      C2120   1.401       .  A
C2119      C2124   1.408       .  A
C2120      C2121   1.399       .  A
C2120      H2135   1.085       .  S
C2121      C2122   1.413       .  A
C2121      C2125   1.444       .  S
C2122      C2123   1.404       .  A
C2123      C2124   1.395       .  A
C2123      H2136   1.085       .  S
C2124      C2126   1.444       .  S
C2125      N2129   1.157       .  T
C2126      N2130   1.157       .  T
C2127      N2132   1.157       .  T
C2128      N2131   1.157       .  T
C2137      C2138   1.408       .  A
C2137      C2142   1.398       .  A
C2137      C2151   1.444       .  S
C2138      C2143   1.475       .  S
C2138      C2139   1.399       .  A
C2139      C2140   1.398       .  A
C2139      H2158   1.085       .  S
C2140      C2141   1.415       .  A
C2140      C2152   1.444       .  S
C2141      C2142   1.405       .  A
C2142      H2157   1.085       .  S
C2143      C2144   1.401       .  A
C2143      C2148   1.407       .  A
C2144      C2145   1.399       .  A
C2144      H2159   1.085       .  S
C2145      C2146   1.414       .  A
C2145      C2149   1.444       .  S
C2146      C2147   1.404       .  A
C2147      C2148   1.395       .  A
C2147      H2160   1.085       .  S
C2148      C2150   1.444       .  S
C2149      N2153   1.157       .  T
C2150      N2154   1.157       .  T
C2151      N2156   1.157       .  T
C2152      N2155   1.157       .  T
C2161      C2162   1.406       .  A
C2161      C2166   1.397       .  A
C2161      C2175   1.444       .  S
C2162      C2167   1.475       .  S
C2162      C2163   1.401       .  A
C2163      C2164   1.400       .  A
C2163      H2182   1.085       .  S
C2164      C2165   1.413       .  A
C2164      C2176   1.444       .  S
C2165      C2166   1.406       .  A
C2166      H2181   1.085       .  S
C2167      C2168   1.400       .  A
C2167      C2172   1.408       .  A
C2168      C2169   1.400       .  A
C2168      H2183   1.085       .  S
C2169      C2170   1.413       .  A
C2169      C2173   1.444       .  S
C2170      C2171   1.403       .  A
C2171      C2172   1.398       .  A
C2171      H2184   1.085       .  S
C2172      C2174   1.444       .  S
C2173      N2177   1.157   1_655  T
C2174      N2178   1.157       .  T
C2175      N2180   1.157       .  T
C2176      N2179   1.157       .  T
C2185      C2186   1.409       .  A
C2185      C2190   1.397       .  A
C2185      C2199   1.444       .  S
C2186      C2191   1.476       .  S
C2186      C2187   1.401       .  A
C2187      C2188   1.398       .  A
C2187      H2206   1.085       .  S
C2188      C2189   1.412       .  A
C2188      C2200   1.444       .  S
C2189      C2190   1.403       .  A
C2190      H2205   1.085       .  S
C2191      C2192   1.399       .  A
C2191      C2196   1.407       .  A
C2192      C2193   1.398       .  A
C2192      H2207   1.085       .  S
C2193      C2194   1.417       .  A
C2193      C2197   1.444       .  S
C2194      C2195   1.407       .  A
C2195      C2196   1.398       .  A
C2195      H2208   1.084       .  S
C2196      C2198   1.444       .  S
C2197      N2201   1.157       .  T
C2198      N2202   1.157       .  T
C2199      N2204   1.157       .  T
C2200      N2203   1.157   1_655  T
C2209      C2210   1.410       .  A
C2209      C2214   1.398       .  A
C2209      C2223   1.444       .  S
C2210      C2215   1.481       .  S
C2210      C2211   1.401       .  A
C2211      C2212   1.398       .  A
C2211      H2230   1.085       .  S
C2212      C2213   1.416       .  A
C2212      C2224   1.445       .  S
C2213      C2214   1.405       .  A
C2214      H2229   1.085       .  S
C2215      C2216   1.402       .  A
C2215      C2220   1.410       .  A
C2216      C2217   1.398       .  A
C2216      H2231   1.085       .  S
C2217      C2218   1.413       .  A
C2217      C2221   1.444       .  S
C2218      C2219   1.405       .  A
C2219      C2220   1.399       .  A
C2219      H2232   1.085       .  S
C2220      C2222   1.444       .  S
C2221      N2225   1.157       .  T
C2222      N2226   1.157       .  T
C2223      N2228   1.157       .  T
C2224      N2227   1.157       .  T
C2233      C2234   1.411       .  A
C2233      C2238   1.400       .  A
C2233      C2247   1.444       .  S
C2234      C2239   1.487       .  S
C2234      C2235   1.403       .  A
C2235      C2236   1.400       .  A
C2235      H2254   1.085       .  S
C2236      C2237   1.415       .  A
C2236      C2248   1.445       .  S
C2237      C2238   1.405       .  A
C2238      H2253   1.085       .  S
C2239      C2240   1.403       .  A
C2239      C2244   1.410       .  A
C2240      C2241   1.401       .  A
C2240      H2255   1.085       .  S
C2241      C2242   1.418       .  A
C2241      C2245   1.444       .  S
C2242      C2243   1.407       .  A
C2243      C2244   1.399       .  A
C2243      H2256   1.084       .  S
C2244      C2246   1.444       .  S
C2245      N2249   1.157       .  T
C2246      N2250   1.157       .  T
C2247      N2252   1.157       .  T
C2248      N2251   1.157       .  T
C2257      C2258   1.409       .  A
C2257      C2262   1.399       .  A
C2257      C2271   1.444       .  S
C2258      C2263   1.479       .  S
C2258      C2259   1.400       .  A
C2259      C2260   1.398       .  A
C2259      H2278   1.085       .  S
C2260      C2261   1.414       .  A
C2260      C2272   1.444       .  S
C2261      C2262   1.405       .  A
C2262      H2277   1.085       .  S
C2263      C2264   1.400       .  A
C2263      C2268   1.409       .  A
C2264      C2265   1.400       .  A
C2264      H2279   1.085       .  S
C2265      C2266   1.417       .  A
C2265      C2269   1.445       .  S
C2266      C2267   1.405       .  A
C2267      C2268   1.398       .  A
C2267      H2280   1.085       .  S
C2268      C2270   1.444       .  S
C2269      N2273   1.157       .  T
C2270      N2274   1.157       .  T
C2271      N2276   1.157       .  T
C2272      N2275   1.157       .  T
C2281      C2282   1.408       .  A
C2281      C2286   1.397       .  A
C2281      C2295   1.444       .  S
C2282      C2287   1.476       .  S
C2282      C2283   1.403       .  A
C2283      C2284   1.401       .  A
C2283      H2302   1.085       .  S
C2284      C2285   1.410       .  A
C2284      C2296   1.444       .  S
C2285      C2286   1.401       .  A
C2286      H2301   1.085       .  S
C2287      C2288   1.399       .  A
C2287      C2292   1.405       .  A
C2288      C2289   1.400       .  A
C2288      H2303   1.085       .  S
C2289      C2290   1.419       .  A
C2289      C2293   1.444       .  S
C2290      C2291   1.409       .  A
C2291      C2292   1.398       .  A
C2291      H2304   1.084       .  S
C2292      C2294   1.444       .  S
C2293      N2297   1.157       .  T
C2294      N2298   1.157       .  T
C2295      N2300   1.157       .  T
C2296      N2299   1.157       .  T
C2305      C2306   1.412       .  A
C2305      C2310   1.399       .  A
C2305      C2319   1.444       .  S
C2306      C2311   1.485       .  S
C2306      C2307   1.403       .  A
C2307      C2308   1.399       .  A
C2307      H2326   1.085       .  S
C2308      C2309   1.414       .  A
C2308      C2320   1.445       .  S
C2309      C2310   1.403       .  A
C2310      H2325   1.085       .  S
C2311      C2312   1.400       .  A
C2311      C2316   1.409       .  A
C2312      C2313   1.399       .  A
C2312      H2327   1.086       .  S
C2313      C2314   1.421       .  A
C2313      C2317   1.443       .  S
C2314      C2315   1.409       .  A
C2315      C2316   1.399       .  A
C2315      H2328   1.085       .  S
C2316      C2318   1.444       .  S
C2317      N2321   1.157       .  T
C2318      N2322   1.157       .  T
C2319      N2324   1.157       .  T
C2320      N2323   1.157       .  T
C2329      C2330   1.408       .  A
C2329      C2334   1.400       .  A
C2329      C2343   1.444       .  S
C2330      C2335   1.479       .  S
C2330      C2331   1.400       .  A
C2331      C2332   1.400       .  A
C2331      H2350   1.085       .  S
C2332      C2333   1.417       .  A
C2332      C2344   1.444       .  S
C2333      C2334   1.406       .  A
C2334      H2349   1.085       .  S
C2335      C2336   1.401       .  A
C2335      C2340   1.409       .  A
C2336      C2337   1.398       .  A
C2336      H2351   1.085       .  S
C2337      C2338   1.410       .  A
C2337      C2341   1.444       .  S
C2338      C2339   1.403       .  A
C2339      C2340   1.401       .  A
C2339      H2352   1.085       .  S
C2340      C2342   1.443       .  S
C2341      N2345   1.157       .  T
C2342      N2346   1.157       .  T
C2343      N2348   1.157       .  T
C2344      N2347   1.157       .  T
C2353      C2354   1.412       .  A
C2353      C2358   1.398       .  A
C2353      C2367   1.445       .  S
C2354      C2359   1.488       .  S
C2354      C2355   1.403       .  A
C2355      C2356   1.401       .  A
C2355      H2374   1.085       .  S
C2356      C2357   1.417       .  A
C2356      C2368   1.444       .  S
C2357      C2358   1.406       .  A
C2358      H2373   1.085       .  S
C2359      C2360   1.403       .  A
C2359      C2364   1.412       .  A
C2360      C2361   1.399       .  A
C2360      H2375   1.085       .  S
C2361      C2362   1.415       .  A
C2361      C2365   1.445       .  S
C2362      C2363   1.405       .  A
C2363      C2364   1.399       .  A
C2363      H2376   1.085       .  S
C2364      C2366   1.444       .  S
C2365      N2369   1.157       .  T
C2366      N2370   1.157       .  T
C2367      N2372   1.157       .  T
C2368      N2371   1.157       .  T
C2377      C2378   1.407       .  A
C2377      C2382   1.396       .  A
C2377      C2391   1.444       .  S
C2378      C2383   1.482       .  S
C2378      C2379   1.403       .  A
C2379      C2380   1.402       .  A
C2379      H2398   1.085       .  S
C2380      C2381   1.416       .  A
C2380      C2392   1.444       .  S
C2381      C2382   1.406       .  A
C2382      H2397   1.085       .  S
C2383      C2384   1.402       .  A
C2383      C2388   1.412       .  A
C2384      C2385   1.400       .  A
C2384      H2399   1.085       .  S
C2385      C2386   1.414       .  A
C2385      C2389   1.445       .  S
C2386      C2387   1.402       .  A
C2387      C2388   1.397       .  A
C2387      H2400   1.085       .  S
C2388      C2390   1.444       .  S
C2389      N2393   1.157       .  T
C2390      N2394   1.157       .  T
C2391      N2396   1.157       .  T
C2392      N2395   1.157       .  T
C2401      C2402   1.409       .  A
C2401      C2406   1.398       .  A
C2401      C2415   1.444       .  S
C2402      C2407   1.478       .  S
C2402      C2403   1.400       .  A
C2403      C2404   1.396       .  A
C2403      H2422   1.085       .  S
C2404      C2405   1.416       .  A
C2404      C2416   1.445       .  S
C2405      C2406   1.406       .  A
C2406      H2421   1.085       .  S
C2407      C2408   1.401       .  A
C2407      C2412   1.409       .  A
C2408      C2409   1.397       .  A
C2408      H2423   1.085       .  S
C2409      C2410   1.415       .  A
C2409      C2413   1.444       .  S
C2410      C2411   1.405       .  A
C2411      C2412   1.397       .  A
C2411      H2424   1.085       .  S
C2412      C2414   1.444       .  S
C2413      N2417   1.157       .  T
C2414      N2418   1.157       .  T
C2415      N2420   1.157       .  T
C2416      N2419   1.157       .  T
C2425      C2426   1.411       .  A
C2425      C2430   1.397       .  A
C2425      C2439   1.444       .  S
C2426      C2431   1.485       .  S
C2426      C2427   1.400       .  A
C2427      C2428   1.398       .  A
C2427      H2446   1.098       .  S
C2428      C2429   1.419       .  A
C2428      C2440   1.444       .  S
C2429      C2430   1.405       .  A
C2430      H2445   1.099       .  S
C2431      C2432   1.401       .  A
C2431      C2436   1.411       .  A
C2432      C2433   1.397       .  A
C2432      H2447   1.090       .  S
C2433      C2434   1.416       .  A
C2433      C2437   1.444       .  S
C2434      C2435   1.405       .  A
C2435      C2436   1.401       .  A
C2435      H2448   1.089       .  S
C2436      C2438   1.444       .  S
C2437      N2441   1.157       .  T
C2438      N2442   1.157       .  T
C2439      N2444   1.157       .  T
C2440      N2443   1.157       .  T
C2449      C2450   1.410       .  A
C2449      C2454   1.398       .  A
C2449      C2463   1.444       .  S
C2450      C2455   1.482       .  S
C2450      C2451   1.402       .  A
C2451      C2452   1.400       .  A
C2451      H2470   1.085       .  S
C2452      C2453   1.414       .  A
C2452      C2464   1.444       .  S
C2453      C2454   1.405       .  A
C2454      H2469   1.085       .  S
C2455      C2456   1.400       .  A
C2455      C2460   1.410       .  A
C2456      C2457   1.398       .  A
C2456      H2471   1.085       .  S
C2457      C2458   1.417       .  A
C2457      C2461   1.444       .  S
C2458      C2459   1.407       .  A
C2459      C2460   1.400       .  A
C2459      H2472   1.085       .  S
C2460      C2462   1.444       .  S
C2461      N2465   1.157       .  T
C2462      N2466   1.157       .  T
C2463      N2468   1.157       .  T
C2464      N2467   1.157       .  T
C2473      C2474   1.409       .  A
C2473      C2478   1.400       .  A
C2473      C2487   1.444       .  S
C2474      C2479   1.483       .  S
C2474      C2475   1.402       .  A
C2475      C2476   1.399       .  A
C2475      H2494   1.085       .  S
C2476      C2477   1.415       .  A
C2476      C2488   1.444       .  S
C2477      C2478   1.406       .  A
C2478      H2493   1.085       .  S
C2479      C2480   1.402       .  A
C2479      C2484   1.409       .  A
C2480      C2481   1.401       .  A
C2480      H2495   1.085       .  S
C2481      C2482   1.417       .  A
C2481      C2485   1.444       .  S
C2482      C2483   1.406       .  A
C2483      C2484   1.398       .  A
C2483      H2496   1.085       .  S
C2484      C2486   1.444       .  S
C2485      N2489   1.157       .  T
C2486      N2490   1.157       .  T
C2487      N2492   1.157       .  T
C2488      N2491   1.157       .  T
C2497      C2498   1.409       .  A
C2497      C2502   1.399       .  A
C2497      C2511   1.444       .  S
C2498      C2503   1.481       .  S
C2498      C2499   1.401       .  A
C2499      C2500   1.396       .  A
C2499      H2518   1.085       .  S
C2500      C2501   1.415       .  A
C2500      C2512   1.444       .  S
C2501      C2502   1.406       .  A
C2502      H2517   1.085       .  S
C2503      C2504   1.403       .  A
C2503      C2508   1.409       .  A
C2504      C2505   1.401       .  A
C2504      H2519   1.085       .  S
C2505      C2506   1.415       .  A
C2505      C2509   1.444       .  S
C2506      C2507   1.405       .  A
C2507      C2508   1.395       .  A
C2507      H2520   1.085       .  S
C2508      C2510   1.445       .  S
C2509      N2513   1.157       .  T
C2510      N2514   1.157       .  T
C2511      N2516   1.157       .  T
C2512      N2515   1.157       .  T
C2521      C2522   1.407       .  A
C2521      C2526   1.396       .  A
C2521      C2535   1.445       .  S
C2522      C2527   1.475       .  S
C2522      C2523   1.398       .  A
C2523      C2524   1.396       .  A
C2523      H2542   1.085       .  S
C2524      C2525   1.420       .  A
C2524      C2536   1.444       .  S
C2525      C2526   1.408       .  A
C2526      H2541   1.084       .  S
C2527      C2528   1.404       .  A
C2527      C2532   1.410       .  A
C2528      C2529   1.399       .  A
C2528      H2543   1.085       .  S
C2529      C2530   1.406       .  A
C2529      C2533   1.443       .  S
C2530      C2531   1.400       .  A
C2531      C2532   1.394       .  A
C2531      H2544   1.085       .  S
C2532      C2534   1.445       .  S
C2533      N2537   1.157       .  T
C2534      N2538   1.157       .  T
C2535      N2540   1.157       .  T
C2536      N2539   1.157       .  T
C2545      C2546   1.410       .  A
C2545      C2550   1.400       .  A
C2545      C2559   1.444       .  S
C2546      C2551   1.486       .  S
C2546      C2547   1.402       .  A
C2547      C2548   1.401       .  A
C2547      H2566   1.085       .  S
C2548      C2549   1.416       .  A
C2548      C2560   1.444       .  S
C2549      C2550   1.406       .  A
C2550      H2565   1.085       .  S
C2551      C2552   1.403       .  A
C2551      C2556   1.411       .  A
C2552      C2553   1.401       .  A
C2552      H2567   1.085       .  S
C2553      C2554   1.414       .  A
C2553      C2557   1.444       .  S
C2554      C2555   1.405       .  A
C2555      C2556   1.400       .  A
C2555      H2568   1.085       .  S
C2556      C2558   1.444       .  S
C2557      N2561   1.157       .  T
C2558      N2562   1.157       .  T
C2559      N2564   1.157       .  T
C2560      N2563   1.157       .  T
C2569      C2570   1.412       .  A
C2569      C2574   1.400       .  A
C2569      C2583   1.444       .  S
C2570      C2575   1.483       .  S
C2570      C2571   1.401       .  A
C2571      C2572   1.396       .  A
C2571      H2590   1.085       .  S
C2572      C2573   1.416       .  A
C2572      C2584   1.445       .  S
C2573      C2574   1.404       .  A
C2574      H2589   1.084       .  S
C2575      C2576   1.402       .  A
C2575      C2580   1.411       .  A
C2576      C2577   1.399       .  A
C2576      H2591   1.085       .  S
C2577      C2578   1.416       .  A
C2577      C2581   1.444       .  S
C2578      C2579   1.406       .  A
C2579      C2580   1.398       .  A
C2579      H2592   1.085       .  S
C2580      C2582   1.445       .  S
C2581      N2585   1.157       .  T
C2582      N2586   1.157       .  T
C2583      N2588   1.157       .  T
C2584      N2587   1.157       .  T
C2593      C2594   1.410       .  A
C2593      C2598   1.399       .  A
C2593      C2607   1.445       .  S
C2594      C2599   1.478       .  S
C2594      C2595   1.399       .  A
C2595      C2596   1.397       .  A
C2595      H2614   1.085       .  S
C2596      C2597   1.418       .  A
C2596      C2608   1.445       .  S
C2597      C2598   1.405       .  A
C2598      H2613   1.085       .  S
C2599      C2600   1.401       .  A
C2599      C2604   1.411       .  A
C2600      C2601   1.397       .  A
C2600      H2615   1.085       .  S
C2601      C2602   1.412       .  A
C2601      C2605   1.445       .  S
C2602      C2603   1.402       .  A
C2603      C2604   1.397       .  A
C2603      H2616   1.085       .  S
C2604      C2606   1.444       .  S
C2605      N2609   1.157       .  T
C2606      N2610   1.157       .  T
C2607      N2612   1.157       .  T
C2608      N2611   1.157       .  T
C2617      C2618   1.410       .  A
C2617      C2622   1.401       .  A
C2617      C2631   1.444       .  S
C2618      C2623   1.481       .  S
C2618      C2619   1.403       .  A
C2619      C2620   1.399       .  A
C2619      H2638   1.085       .  S
C2620      C2621   1.409       .  A
C2620      C2632   1.443       .  S
C2621      C2622   1.403       .  A
C2622      H2637   1.085       .  S
C2623      C2624   1.401       .  A
C2623      C2628   1.409       .  A
C2624      C2625   1.402       .  A
C2624      H2639   1.085       .  S
C2625      C2626   1.416       .  A
C2625      C2629   1.444       .  S
C2626      C2627   1.406       .  A
C2627      C2628   1.399       .  A
C2627      H2640   1.085       .  S
C2628      C2630   1.444       .  S
C2629      N2633   1.157       .  T
C2630      N2634   1.157       .  T
C2631      N2636   1.157       .  T
C2632      N2635   1.157       .  T
C2641      C2642   1.411       .  A
C2641      C2646   1.398       .  A
C2641      C2655   1.445       .  S
C2642      C2647   1.485       .  S
C2642      C2643   1.402       .  A
C2643      C2644   1.400       .  A
C2643      H2662   1.085       .  S
C2644      C2645   1.418       .  A
C2644      C2656   1.445       .  S
C2645      C2646   1.406       .  A
C2646      H2661   1.084       .  S
C2647      C2648   1.402       .  A
C2647      C2652   1.412       .  A
C2648      C2649   1.398       .  A
C2648      H2663   1.085       .  S
C2649      C2650   1.415       .  A
C2649      C2653   1.444       .  S
C2650      C2651   1.404       .  A
C2651      C2652   1.400       .  A
C2651      H2664   1.085       .  S
C2652      C2654   1.444       .  S
C2653      N2657   1.157       .  T
C2654      N2658   1.157       .  T
C2655      N2660   1.157       .  T
C2656      N2659   1.157       .  T
C2665      C2666   1.408       .  A
C2665      C2670   1.400       .  A
C2665      C2679   1.444       .  S
C2666      C2671   1.482       .  S
C2666      C2667   1.401       .  A
C2667      C2668   1.399       .  A
C2667      H2686   1.085       .  S
C2668      C2669   1.415       .  A
C2668      C2680   1.443       .  S
C2669      C2670   1.408       .  A
C2670      H2685   1.084       .  S
C2671      C2672   1.402       .  A
C2671      C2676   1.410       .  A
C2672      C2673   1.401       .  A
C2672      H2687   1.085       .  S
C2673      C2674   1.415       .  A
C2673      C2677   1.445       .  S
C2674      C2675   1.403       .  A
C2675      C2676   1.397       .  A
C2675      H2688   1.085       .  S
C2676      C2678   1.444       .  S
C2677      N2681   1.157       .  T
C2678      N2682   1.157       .  T
C2679      N2684   1.157       .  T
C2680      N2683   1.157       .  T
C2689      C2690   1.408       .  A
C2689      C2694   1.396       .  A
C2689      C2703   1.445       .  S
C2690      C2695   1.475       .  S
C2690      C2691   1.401       .  A
C2691      C2692   1.399       .  A
C2691      H2710   1.085       .  S
C2692      C2693   1.413       .  A
C2692      C2704   1.444       .  S
C2693      C2694   1.404       .  A
C2694      H2709   1.085       .  S
C2695      C2696   1.401       .  A
C2695      C2700   1.407       .  A
C2696      C2697   1.399       .  A
C2696      H2711   1.085       .  S
C2697      C2698   1.415       .  A
C2697      C2701   1.444       .  S
C2698      C2699   1.406       .  A
C2699      C2700   1.395       .  A
C2699      H2712   1.085       .  S
C2700      C2702   1.444       .  S
C2701      N2705   1.157       .  T
C2702      N2706   1.157       .  T
C2703      N2708   1.157       .  T
C2704      N2707   1.157       .  T
C2713      C2714   1.408       .  A
C2713      C2718   1.398       .  A
C2713      C2727   1.444       .  S
C2714      C2719   1.478       .  S
C2714      C2715   1.400       .  A
C2715      C2716   1.399       .  A
C2715      H2734   1.085       .  S
C2716      C2717   1.416       .  A
C2716      C2728   1.444       .  S
C2717      C2718   1.406       .  A
C2718      H2733   1.085       .  S
C2719      C2720   1.401       .  A
C2719      C2724   1.409       .  A
C2720      C2721   1.399       .  A
C2720      H2735   1.085       .  S
C2721      C2722   1.414       .  A
C2721      C2725   1.445       .  S
C2722      C2723   1.404       .  A
C2723      C2724   1.398       .  A
C2723      H2736   1.085       .  S
C2724      C2726   1.444       .  S
C2725      N2729   1.157       .  T
C2726      N2730   1.157       .  T
C2727      N2732   1.157       .  T
C2728      N2731   1.157       .  T
C2737      C2738   1.405       .  A
C2737      C2742   1.398       .  A
C2737      C2751   1.444       .  S
C2738      C2743   1.475       .  S
C2738      C2739   1.398       .  A
C2739      C2740   1.399       .  A
C2739      H2758   1.085       .  S
C2740      C2741   1.422       .  A
C2740      C2752   1.444       .  S
C2741      C2742   1.410       .  A
C2742      H2757   1.084       .  S
C2743      C2744   1.402       .  A
C2743      C2748   1.409       .  A
C2744      C2745   1.400       .  A
C2744      H2759   1.085       .  S
C2745      C2746   1.409       .  A
C2745      C2749   1.443       .  S
C2746      C2747   1.399       .  A
C2747      C2748   1.396       .  A
C2747      H2760   1.085       .  S
C2748      C2750   1.444       .  S
C2749      N2753   1.157       .  T
C2750      N2754   1.157       .  T
C2751      N2756   1.157       .  T
C2752      N2755   1.158       .  T
C2761      C2762   1.408       .  A
C2761      C2766   1.402       .  A
C2761      C2775   1.444       .  S
C2762      C2767   1.476       .  S
C2762      C2763   1.398       .  A
C2763      C2764   1.397       .  A
C2763      H2782   1.085       .  S
C2764      C2765   1.414       .  A
C2764      C2776   1.443       .  S
C2765      C2766   1.406       .  A
C2766      H2781   1.085       .  S
C2767      C2768   1.400       .  A
C2767      C2772   1.408       .  A
C2768      C2769   1.397       .  A
C2768      H2783   1.085       .  S
C2769      C2770   1.412       .  A
C2769      C2773   1.445       .  S
C2770      C2771   1.405       .  A
C2771      C2772   1.400       .  A
C2771      H2784   1.085       .  S
C2772      C2774   1.444       .  S
C2773      N2777   1.157       .  T
C2774      N2778   1.157       .  T
C2775      N2780   1.157       .  T
C2776      N2779   1.157       .  T
C2785      C2786   1.406       .  A
C2785      C2790   1.399       .  A
C2785      C2799   1.444       .  S
C2786      C2791   1.478       .  S
C2786      C2787   1.400       .  A
C2787      C2788   1.399       .  A
C2787      H2806   1.085       .  S
C2788      C2789   1.418       .  A
C2788      C2800   1.444       .  S
C2789      C2790   1.409       .  A
C2790      H2805   1.084       .  S
C2791      C2792   1.400       .  A
C2791      C2796   1.410       .  A
C2792      C2793   1.396       .  A
C2792      H2807   1.085       .  S
C2793      C2794   1.413       .  A
C2793      C2797   1.445       .  S
C2794      C2795   1.404       .  A
C2795      C2796   1.401       .  A
C2795      H2808   1.085       .  S
C2796      C2798   1.444       .  S
C2797      N2801   1.157       .  T
C2798      N2802   1.157       .  T
C2799      N2804   1.157       .  T
C2800      N2803   1.157       .  T
C2809      C2810   1.410       .  A
C2809      C2814   1.396       .  A
C2809      C2823   1.444       .  S
C2810      C2815   1.483       .  S
C2810      C2811   1.403       .  A
C2811      C2812   1.400       .  A
C2811      H2830   1.085       .  S
C2812      C2813   1.413       .  A
C2812      C2824   1.444       .  S
C2813      C2814   1.403       .  A
C2814      H2829   1.083       .  S
C2815      C2816   1.401       .  A
C2815      C2820   1.410       .  A
C2816      C2817   1.399       .  A
C2816      H2831   1.085       .  S
C2817      C2818   1.418       .  A
C2817      C2821   1.444       .  S
C2818      C2819   1.406       .  A
C2819      C2820   1.398       .  A
C2819      H2832   1.084       .  S
C2820      C2822   1.444       .  S
C2821      N2825   1.157       .  T
C2822      N2826   1.157       .  T
C2823      N2828   1.157       .  T
C2824      N2827   1.157       .  T
