geometry optimzed in LAMMPS
_audit_creation_date              2020-12-01 
_audit_creation_method            'lammps2cif' 
_symmetry_space_group_name_H-M    'P1' 
_symmetry_Int_Tables_number       1 
_symmetry_cell_setting            triclinic 
loop_ 
_symmetry_equiv_pos_as_xyz 
  x,y,z 
_cell_length_a                    40.24887573 
_cell_length_b                    40.70700890050619 
_cell_length_c                    68.47681042679599 
_cell_angle_alpha                 90.7392689290916 
_cell_angle_beta                  89.18655940054742 
_cell_angle_gamma                 88.46022470766528 
loop_ 
_atom_site_label 
_atom_site_type_symbol 
_atom_site_fract_x 
_atom_site_fract_y 
_atom_site_fract_z 
_atom_site_charge 
C1          C  0.24712842  0.04239547  0.24061488     0.86600
C2          C  0.27818823  0.03619775  0.25273815    -0.53600
C3          C  0.28018799  0.50226277  0.26090805     0.09500
C4          C  0.24807286  0.48273414  0.25851756     0.20500
C5          C  0.24249920  0.01101091  0.22822782    -0.54300
C6          C  0.24434748  0.47749450  0.23639181     0.09600
C7          C  0.21846173  0.04090462  0.25586778    -0.53900
C8          C  0.21935807  0.50720674  0.26385418     0.10200
H9          H  0.29850601  0.05322294  0.25332939     0.14700
H10         H  0.24867851  0.45989853  0.26708211     0.00500
H11         H  0.24252878  0.50681737  0.21040034     0.15000
H12         H  0.19888786  0.05931711  0.25796748     0.14800
N13         N  0.45275353  0.25056357  0.99912548    -0.36500
N14         N  0.00481056  0.24478663  0.97151250    -0.57000
N15         N  0.05418536  0.25113355  0.00098393    -0.36500
N16         N  0.00229323  0.25501490  0.03049206    -0.57000
C17         C  0.43388202  0.25640636  0.98332225     0.27100
C18         C  0.43311888  0.25605129  0.01506043     0.27100
C19         C  0.07245630  0.25749144  0.98487771     0.27100
C20         C  0.07129929  0.26163595  0.01652423     0.27100
C21         C  0.47824224  0.24997885  0.95764369     0.35700
C22         C  0.03227766  0.23827821  0.96054629     0.35700
C23         C  0.47598437  0.24744347  0.04067154     0.35700
C24         C  0.02892043  0.25078675  0.04196925     0.35700
C25         C  0.40164071  0.26482652  0.98924872    -0.21800
C26         C  0.40117938  0.26470646  0.00930358    -0.21800
C27         C  0.10173984  0.27216154  0.99022508    -0.21800
C28         C  0.10109251  0.27460013  0.01032818    -0.21800
C29         C  0.48884815  0.24449517  0.93849809    -0.22800
C30         C  0.02383326  0.22512162  0.94257418    -0.22800
C31         C  0.48522668  0.24125557  0.05973126    -0.22800
C32         C  0.01909693  0.24225508  0.06067990    -0.22800
C33         C  0.44462671  0.25323761  0.96367481    -0.18200
C34         C  0.44284220  0.25237585  0.03465469    -0.18200
C35         C  0.06179859  0.25662081  0.03607054    -0.18200
C36         C  0.06434493  0.24767112  0.96577117    -0.18200
H37         H  0.38064318  0.27059290  0.98007914     0.14700
H38         H  0.37972793  0.27032396  0.01858477     0.14700
H39         H  0.12183651  0.27943834  0.98068607     0.14700
H40         H  0.12053804  0.28419426  0.01935934     0.14700
H41         H  0.47367016  0.24074715  0.92577957     0.13000
H42         H  0.04034595  0.21829291  0.93049550     0.13000
H43         H  0.46913551  0.23790899  0.07230834     0.13000
H44         H  0.03469736  0.23785755  0.07317391     0.13000
H45         H  0.47654279  0.24023134  0.99898157     0.26300
H46         H  0.03355650  0.23632707  0.00158225     0.26300
C47         C  0.21002365  0.49580634  0.73933606     0.86600
C48         C  0.21066199  0.02661976  0.75302460    -0.53600
C49         C  0.24058935  0.02666513  0.76216431     0.09500
C50         C  0.26404379  0.49548653  0.76048108     0.20500
C51         C  0.24253193  0.49034614  0.72756677    -0.54300
C52         C  0.27080210  0.49081537  0.73837541     0.09600
C53         C  0.21209016  0.46799963  0.75445878    -0.53900
C54         C  0.24007440  0.46780271  0.76555642     0.10200
H55         H  0.19226826  0.04649026  0.75487718     0.14700
H56         H  0.28669526  0.49546983  0.76939869     0.00500
H57         H  0.24331375  0.48776713  0.71176779     0.15000
H58         H  0.19497825  0.44801207  0.75547624     0.14800
C59         C  0.04277980  0.25129384  0.75793315     0.86600
C60         C  0.03559555  0.28214617  0.74599790    -0.53600
C61         C  0.50425216  0.28277412  0.73980834     0.09500
C62         C  0.48508138  0.25054099  0.74101657     0.20500
C63         C  0.01143924  0.24755035  0.77099202    -0.54300
C64         C  0.47894154  0.24558917  0.76298252     0.09600
C65         C  0.04019652  0.22219258  0.74344094    -0.53900
C66         C  0.51044520  0.22290235  0.73523371     0.10200
H67         H  0.05260519  0.30238029  0.74527519     0.14700
H68         H  0.46203959  0.25043906  0.73227762     0.00500
H69         H  0.50661050  0.24221496  0.78930166     0.15000
H70         H  0.05834133  0.20214225  0.74218619     0.14800
N71         N  0.25057965  0.45240920  0.99944482    -0.36500
N72         N  0.24975082  0.00308359  0.02996261    -0.57000
N73         N  0.25621523  0.05190042  0.99991857    -0.36500
N74         N  0.26237129  0.99968050  0.97057641    -0.57000
C75         C  0.25670131  0.43345350  0.01511756     0.27100
C76         C  0.25956978  0.43455503  0.98331881     0.27100
C77         C  0.26177586  0.07026262  0.01610775     0.27100
C78         C  0.26831304  0.06833316  0.98442799     0.27100
C79         C  0.24315562  0.47512329  0.04117908     0.35700
C80         C  0.24264269  0.03051677  0.04073875     0.35700
C81         C  0.24964358  0.47781384  0.95884929     0.35700
C82         C  0.25806016  0.02609923  0.95901993     0.35700
C83         C  0.26952253  0.40305654  0.00888625    -0.21800
C84         C  0.27138076  0.40377937  0.98878296    -0.21800
C85         C  0.27769191  0.09869048  0.01084776    -0.21800
C86         C  0.28160463  0.09757551  0.99080406    -0.21800
C87         C  0.23323531  0.48446163  0.05996235    -0.22800
C88         C  0.23023383  0.02210888  0.05893802    -0.22800
C89         C  0.24084754  0.48884206  0.94053166    -0.22800
C90         C  0.24925235  0.01615883  0.94040389    -0.22800
C91         C  0.24893091  0.44224527  0.03474142    -0.18200
C92         C  0.25469472  0.44455234  0.96385175    -0.18200
C93         C  0.26508205  0.05868385  0.96463639    -0.18200
C94         C  0.25108302  0.06269256  0.03527604    -0.18200
H95         H  0.27634817  0.38233289  0.01786984     0.14700
H96         H  0.27981551  0.38373740  0.97925619     0.14700
H97         H  0.28509278  0.11847331  0.02041778     0.14700
H98         H  0.29264203  0.11629126  0.98190525     0.14700
H99         H  0.22685432  0.46859473  0.07193241     0.13000
H100        H  0.22310715  0.03850878  0.07093409     0.13000
H101        H  0.23528163  0.47413251  0.92777116     0.13000
H102        H  0.24478034  0.03152846  0.92787989     0.13000
H103        H  0.23727375  0.47466724  0.99966281     0.26300
H104        H  0.24148547  0.03131303  0.99920809     0.26300
C105        C  0.35333976  0.24917492  0.89950007     0.42600
N106        N  0.32651687  0.23369888  0.87424988     0.01500
C107        C  0.22464330  0.33665438  0.82030728    -0.06400
H108        H  0.20083577  0.34155384  0.89390258     0.07000
C109        C  0.17148226  0.21974457  0.89152772    -0.06800
Co110      Co  0.29754183  0.29150041  0.85344447     0.74200
N111        N  0.23799779  0.31627981  0.87606639    -0.25900
Co112      Co  0.21210225  0.28976839  0.85521641     0.74100
C113        C  0.15742735  0.24925600  0.90105135     0.42700
N114        N  0.24485693  0.18034264  0.87679755     0.01100
N115        N  0.18827010  0.26319337  0.87691277     0.01200
N116        N  0.28081955  0.33754952  0.81997428    -0.46800
H117        H  0.34246304  0.30375286  0.89280666     0.06900
N118        N  0.27069925  0.31713529  0.87540230     0.01500
N119        N  0.18769922  0.26232821  0.83422046     0.01200
C120        C  0.15638263  0.24910883  0.81039877     0.42800
N121        N  0.27757877  0.18095349  0.87555947    -0.25400
C122        C  0.34197126  0.27558542  0.81670175    -0.06300
N123        N  0.34391064  0.22255501  0.88918397    -0.46500
N124        N  0.16863475  0.27466608  0.82040287    -0.46700
C125        C  0.35529824  0.24584994  0.80684433     0.42600
N126        N  0.26952350  0.31655774  0.83294012     0.01500
N127        N  0.27572235  0.17825953  0.83316744    -0.25400
N128        N  0.32430659  0.26602394  0.87407981    -0.25900
N129        N  0.24297535  0.17765830  0.83412854     0.01100
H130        H  0.31235818  0.14728347  0.81802396     0.07000
H131        H  0.16462267  0.19377383  0.81615512     0.07000
N132        N  0.23678491  0.31574573  0.83356019    -0.26000
N133        N  0.19002399  0.23081189  0.87679442    -0.25600
N134        N  0.32490383  0.23238285  0.83143298     0.01500
C135        C  0.25663842  0.34997430  0.89921993     0.42900
C136        C  0.29053997  0.16374220  0.89024893    -0.06800
N137        N  0.18891040  0.22984170  0.83409176    -0.25600
H138        H  0.16704453  0.19419564  0.89446942     0.07000
N139        N  0.28278966  0.33688518  0.88894102    -0.46800
H140        H  0.31675014  0.15944198  0.89264832     0.07000
C141        C  0.25653490  0.13887007  0.81380378     0.42700
C142        C  0.34056229  0.27798540  0.88930113    -0.06300
Co143      Co  0.30185508  0.20586454  0.85347631     0.73800
N144        N  0.23443650  0.16340887  0.89208075    -0.46500
C145        C  0.25391542  0.35054085  0.81111232     0.43000
N146        N  0.34403340  0.22011310  0.81708440    -0.46500
Co147      Co  0.21610864  0.20418857  0.85543022     0.73900
C148        C  0.16983443  0.21916851  0.81942240    -0.06800
C149        C  0.22677179  0.33619919  0.89057930    -0.06400
N150        N  0.32333567  0.26482172  0.83155340    -0.25900
N151        N  0.16898809  0.27527860  0.89124913    -0.46700
H152        H  0.19868459  0.34329579  0.81848237     0.07000
C153        C  0.28663839  0.15480935  0.82044662    -0.06800
Cl154      Cl  0.25685593  0.24778815  0.85427811    -0.49800
C155        C  0.26203300  0.15254521  0.90144136     0.42700
H156        H  0.34741905  0.30101692  0.81409862     0.06900
N157        N  0.23062504  0.15459673  0.82280828    -0.46500
C158        C  0.35714990  0.25605067  0.18787380     0.42600
N159        N  0.32119419  0.24154313  0.16689063     0.01500
C160        C  0.22136398  0.34045988  0.10959623    -0.06400
H161        H  0.19416210  0.34922075  0.18527506     0.07000
C162        C  0.16119796  0.22824627  0.18088265    -0.06800
Co163      Co  0.29232021  0.29902524  0.14595858     0.74200
N164        N  0.23147958  0.32344252  0.16761942    -0.25900
Co165      Co  0.20612072  0.29790867  0.14617093     0.74100
C166        C  0.14566110  0.25782335  0.18962774     0.42700
N167        N  0.23727265  0.18882174  0.16738676     0.01100
N168        N  0.18034614  0.27160981  0.16727389     0.01200
N169        N  0.27733500  0.33972288  0.10969094    -0.46800
H170        H  0.34693264  0.31101044  0.18217205     0.06900
N171        N  0.26424138  0.32357429  0.16754259     0.01500
N172        N  0.18245902  0.27085592  0.12478244     0.01200
C173        C  0.15209936  0.25704150  0.10068030     0.42800
N174        N  0.27003087  0.18970094  0.16744455    -0.25400
C175        C  0.33617043  0.28397856  0.10938972    -0.06300
N176        N  0.34336436  0.22979962  0.17928580    -0.46500
N177        N  0.16379374  0.28289271  0.11069919    -0.46700
C178        C  0.34856662  0.25450538  0.09899127     0.42600
N179        N  0.26507870  0.32327937  0.12461228     0.01500
N180        N  0.27131366  0.18781446  0.12488899    -0.25400
N181        N  0.31964060  0.27395348  0.16685630    -0.25900
N182        N  0.23863005  0.18672040  0.12454249     0.01100
H183        H  0.31032738  0.16522701  0.10743971     0.07000
H184        H  0.16121943  0.20176333  0.10689819     0.07000
N185        N  0.23237334  0.32312274  0.12482413    -0.26000
N186        N  0.18219167  0.23916530  0.16718947    -0.25600
N187        N  0.32048797  0.24054390  0.12429958     0.01500
C188        C  0.24977330  0.35552107  0.19152197     0.42900
C189        C  0.28119819  0.17186254  0.18238378    -0.06800
N190        N  0.18398975  0.23844617  0.12466330    -0.25600
H191        H  0.15537686  0.20280723  0.18322381     0.07000
N192        N  0.27608758  0.34219593  0.18161272    -0.46800
H193        H  0.30703963  0.16663615  0.18555507     0.07000
C194        C  0.25565026  0.15400081  0.10122593     0.42700
C195        C  0.34142772  0.28543690  0.17975797    -0.06300
Co196      Co  0.29621257  0.21435160  0.14593287     0.73800
N197        N  0.22513812  0.17093275  0.18168585    -0.46500
C198        C  0.25132121  0.35135010  0.09937034     0.43000
N199        N  0.33819521  0.22850004  0.10928316    -0.46500
Co200      Co  0.20998912  0.21266617  0.14590415     0.73900
C201        C  0.16553619  0.22738488  0.11000662    -0.06800
C202        C  0.22002020  0.34277806  0.18236001    -0.06400
N203        N  0.31889695  0.27289678  0.12458266    -0.25900
N204        N  0.15839612  0.28377948  0.18028578    -0.46700
H205        H  0.19556586  0.34576222  0.10660645     0.07000
C206        C  0.28418181  0.16840946  0.11063971    -0.06800
Cl207      Cl  0.25113146  0.25594579  0.14603708    -0.49800
C208        C  0.25133583  0.15984870  0.19202533     0.42700
H209        H  0.33979610  0.30955160  0.10637326     0.06900
N210        N  0.22813777  0.16685628  0.11049644    -0.46500
C211        C  0.09221368  0.49671178  0.68917866     0.42600
N212        N  0.05918658  0.48300250  0.66617331     0.01500
C213        C  0.46376471  0.08052471  0.60932406    -0.06400
H214        H  0.43267514  0.09801445  0.68087886     0.07000
C215        C  0.40453821  0.46844558  0.68229511    -0.06800
Co216      Co  0.03058112  0.03977462  0.64763787     0.74200
N217        N  0.47099921  0.06715311  0.66755445    -0.25900
Co218      Co  0.44770882  0.03925165  0.64605384     0.74100
C219        C  0.39070001  0.49840559  0.69163213     0.42700
N220        N  0.47675868  0.42769104  0.66798314     0.01100
N221        N  0.42207876  0.01252231  0.66707327     0.01200
N222        N  0.01696767  0.08530687  0.61309698    -0.46800
H223        H  0.07497390  0.04852050  0.68779324     0.06900
N224        N  0.00263693  0.06488649  0.66907659     0.01500
N225        N  0.42588958  0.01144618  0.62425895     0.01200
C226        C  0.39992198  0.49322486  0.59776489     0.42800
N227        N  0.00866479  0.42936930  0.66364415    -0.25400
C228        C  0.07839853  0.02663666  0.61246167    -0.06300
N229        N  0.08008471  0.47077984  0.67922687    -0.46500
N230        N  0.41131785  0.02298011  0.60844788    -0.46700
C231        C  0.09382292  0.49926882  0.60059506     0.42600
N232        N  0.00456378  0.06609353  0.62669234     0.01500
N233        N  0.01049891  0.43351848  0.62100449    -0.25400
N234        N  0.05485542  0.01226748  0.66852314    -0.25900
N235        N  0.47979426  0.42693235  0.62523809     0.01100
H236        H  0.04798244  0.41182959  0.60171854     0.07000
H237        H  0.40610838  0.43877858  0.60632184     0.07000
N238        N  0.47450379  0.06411277  0.62491146    -0.26000
N239        N  0.42299142  0.47884193  0.66729260    -0.25600
N240        N  0.06076840  0.48494383  0.62362541     0.01500
C241        C  0.48762439  0.10572572  0.68865145     0.42900
C242        C  0.02006214  0.40630610  0.67585888    -0.06800
N243        N  0.42526935  0.47674483  0.62467343    -0.25600
H244        H  0.39990927  0.44303522  0.68555574     0.07000
N245        N  0.01414828  0.08710839  0.68131833    -0.46800
H246        H  0.04593713  0.39989212  0.67820301     0.07000
C247        C  0.49585727  0.39873920  0.59968450     0.42700
C248        C  0.07112447  0.02301426  0.68406733    -0.06300
Co249      Co  0.03528638  0.45717628  0.64374485     0.73800
N250        N  0.46412579  0.40784683  0.68115397    -0.46500
C251        C  0.49383625  0.09193175  0.59957724     0.43000
N252        N  0.08076935  0.47323789  0.60957188    -0.46500
Co253      Co  0.45058033  0.45200619  0.64634378     0.73900
C254        C  0.40989055  0.46454087  0.60907461    -0.06800
C255        C  0.45851634  0.09026635  0.68006370    -0.06400
N256        N  0.05810637  0.01471167  0.62614154    -0.25900
N257        N  0.40011936  0.02460546  0.68002657    -0.46700
H258        H  0.43802199  0.08389797  0.60533178     0.07000
C259        C  0.02224079  0.41797978  0.60478273    -0.06800
Cl260      Cl  0.49116029  0.49585934  0.64682827    -0.49800
C261        C  0.48998954  0.39587632  0.69140325     0.42700
H262        H  0.08370417  0.05232541  0.61071683     0.06900
N263        N  0.46896159  0.41010300  0.61002903    -0.46500
C264        C  0.50889847  0.08788527  0.31120584     0.42600
N265        N  0.48936294  0.05944604  0.33475108     0.01500
C266        C  0.07848183  0.45374086  0.39197710    -0.06400
H267        H  0.09619103  0.42830558  0.31908263     0.07000
C268        C  0.46840514  0.40696715  0.31532562    -0.06800
Co269      Co  0.04279161  0.02735389  0.35897773     0.74200
N270        N  0.06639947  0.46587238  0.33420801    -0.25900
Co271      Co  0.03673209  0.44134947  0.35441105     0.74100
C272        C  0.49812728  0.39009395  0.30705902     0.42700
N273        N  0.43067698  0.48050346  0.33015284     0.01100
N274        N  0.00988071  0.41879732  0.33219662     0.01200
N275        N  0.07873202  0.00731785  0.39595287    -0.46800
H276        H  0.06235512  0.07854234  0.32237947     0.06900
N277        N  0.06949221  0.99990843  0.33811127     0.01500
N278        N  0.00674258  0.41788388  0.37480768     0.01200
C279        C  0.48383592  0.38762012  0.39715409     0.42800
N280        N  0.43272021  0.01390352  0.33210459    -0.25400
C281        C  0.02608165  0.06945199  0.39611504    -0.06300
N282        N  0.48053653  0.07894211  0.32024607    -0.46500
N283        N  0.01673848  0.39786820  0.38879797    -0.46700
C284        C  0.49469963  0.08496214  0.40379715     0.42600
N285        N  0.06269486  0.99727158  0.38038317     0.01500
N286        N  0.42748334  0.01252381  0.37442447    -0.25400
N287        N  0.02139486  0.05643406  0.33750418    -0.25900
N288        N  0.42505371  0.48012096  0.37241702     0.01100
H289        H  0.40626725  0.05013755  0.39332174     0.07000
H290        H  0.43055338  0.40554147  0.38972422     0.07000
N291        N  0.06178332  0.46561232  0.37667813    -0.26000
N292        N  0.47895200  0.42419925  0.33070235    -0.25600
N293        N  0.48284876  0.05868132  0.37753070     0.01500
C294        C  0.10659910  0.48314395  0.31456982     0.42900
C295        C  0.41224859  0.02732241  0.31897320    -0.06800
N296        N  0.47215062  0.42265008  0.37331865    -0.25600
H297        H  0.44268559  0.40465264  0.31127830     0.07000
N298        N  0.09277944  0.01154723  0.32653403    -0.46800
H299        H  0.40831589  0.05336672  0.31683449     0.07000
C300        C  0.39196357  0.49673241  0.39551448     0.42700
C301        C  0.03589753  0.07547311  0.32423721    -0.06300
Co302      Co  0.45776527  0.03678020  0.35466125     0.73800
N303        N  0.40930827  0.47016457  0.31708556    -0.46500
C304        C  0.08993511  0.48284038  0.40258612     0.43000
N305        N  0.46948475  0.07645325  0.39211425    -0.46500
Co306      Co  0.45134853  0.45146021  0.35162186     0.73900
C307        C  0.45700524  0.40522423  0.38713405    -0.06800
C308        C  0.09003901  0.45401205  0.32173491    -0.06400
N309        N  0.01565774  0.05415035  0.37999630    -0.25900
N310        N  0.02157980  0.39817594  0.31846129    -0.46700
H311        H  0.08343151  0.42799165  0.39431233     0.07000
C312        C  0.40766938  0.02469155  0.38878293    -0.06800
Cl313      Cl  0.49778448  0.48847794  0.35422579    -0.49800
C314        C  0.39674620  0.49695205  0.30821121     0.42700
H315        H  0.05180006  0.07189189  0.39987329     0.06900
N316        N  0.40370189  0.46974113  0.38570220    -0.46500
N317        N  0.99100059  0.29398291  0.49869358    -0.36500
N318        N  0.99009464  0.23921281  0.47121326    -0.57000
N319        N  0.98981927  0.19348598  0.50337922    -0.36500
N320        N  0.98819159  0.24836713  0.53090692    -0.57000
C321        C  0.98461402  0.30964666  0.48178372     0.27100
C322        C  0.98137078  0.31452253  0.51354575     0.27100
C323        C  0.98226593  0.17302041  0.48845067     0.27100
C324        C  0.98354382  0.17762281  0.52019720     0.27100
C325        C  0.99855695  0.26341034  0.45893736     0.35700
C326        C  0.99568319  0.21061672  0.46133608     0.35700
C327        C  0.99314737  0.27661827  0.54090352     0.35700
C328        C  0.99478459  0.22356574  0.54332150     0.35700
C329        C  0.97095659  0.34063199  0.48589843    -0.21800
C330        C  0.96879741  0.34367385  0.50596208    -0.21800
C331        C  0.97140439  0.14358886  0.49587424    -0.21800
C332        C  0.97241399  0.14641263  0.51592851    -0.21800
C333        C  0.00971394  0.25013626  0.44120843    -0.22800
C334        C  0.00773959  0.21665238  0.44269816    -0.22800
C335        C  0.00285279  0.26973630  0.55979703    -0.22800
C336        C  0.00385874  0.23610874  0.56133455    -0.22800
C337        C  0.99285278  0.29725855  0.46284993    -0.18200
C338        C  0.98598634  0.30842229  0.53368302    -0.18200
C339        C  0.98940276  0.19001471  0.53920482    -0.18200
C340        C  0.98748656  0.17936167  0.46838547    -0.18200
H341        H  0.96358444  0.35920561  0.47553058     0.14700
H342        H  0.95946682  0.36508737  0.51404870     0.14700
H343        H  0.96411455  0.12209434  0.48769043     0.14700
H344        H  0.96589469  0.12755056  0.52618900     0.14700
H345        H  0.01765123  0.26323664  0.42837980     0.13000
H346        H  0.01393724  0.19881771  0.43127172     0.13000
H347        H  0.00802991  0.28710766  0.57138349     0.13000
H348        H  0.00977017  0.22247659  0.57435779     0.13000
H349        H  0.00479950  0.27217196  0.49997969     0.26300
H350        H  0.00216323  0.21545637  0.50221061     0.26300
N351        N  0.19535752  0.49335242  0.50045448    -0.36500
N352        N  0.24790853  0.49680144  0.52929934    -0.57000
N353        N  0.29774339  0.49154348  0.49860345    -0.36500
N354        N  0.24505431  0.49073674  0.46975566    -0.57000
C355        C  0.17694769  0.50075208  0.51661029     0.27100
C356        C  0.17568150  0.49813446  0.48483510     0.27100
C357        C  0.31666822  0.50060357  0.51381963     0.27100
C358        C  0.31506773  0.49760695  0.48205287     0.27100
C359        C  0.22151390  0.49297897  0.54133569     0.35700
C360        C  0.27522070  0.49193211  0.54024187     0.35700
C361        C  0.21795861  0.48377787  0.45922119     0.35700
C362        C  0.27164753  0.48276757  0.45829675     0.35700
C363        C  0.14475018  0.50926655  0.51123200    -0.21800
C364        C  0.14409906  0.50811986  0.49115548    -0.21800
C365        C  0.34669257  0.51200641  0.50688964    -0.21800
C366        C  0.34559017  0.51034690  0.48678835    -0.21800
C367        C  0.23216616  0.48602255  0.56007167    -0.22800
C368        C  0.26618575  0.48492932  0.55930839    -0.22800
C369        C  0.22735548  0.47118354  0.44101522    -0.22800
C370        C  0.26143202  0.47067798  0.44039511    -0.22800
C371        C  0.18797391  0.49809867  0.53605540    -0.18200
C372        C  0.18495973  0.49152492  0.46516110    -0.18200
C373        C  0.30475877  0.48980858  0.46293492    -0.18200
C374        C  0.30801151  0.49727495  0.53375354    -0.18200
H375        H  0.12378970  0.51552024  0.52076537     0.14700
H376        H  0.12262325  0.51334882  0.48226449     0.14700
H377        H  0.36724035  0.52057304  0.51542996     0.14700
H378        H  0.36524630  0.51715923  0.47680521     0.14700
H379        H  0.21711904  0.48264981  0.57307149     0.13000
H380        H  0.28239704  0.48074386  0.57155842     0.13000
H381        H  0.21131820  0.46399499  0.42923710     0.13000
H382        H  0.27692823  0.46298659  0.42803024     0.13000
H383        H  0.21881355  0.48219260  0.50030040     0.26300
H384        H  0.27592786  0.47851520  0.49946544     0.26300
C385        C  0.50353132  0.20488837  0.26252031     0.86600
C386        C  0.03444115  0.21286207  0.25044089    -0.53600
C387        C  0.03130531  0.24051069  0.23952778     0.09500
C388        C  0.49651214  0.25961579  0.24299762     0.20500
C389        C  0.49987832  0.23670180  0.27536846    -0.54300
C390        C  0.49625899  0.26514691  0.26516548     0.09600
C391        C  0.47235687  0.20657091  0.24979608    -0.53900
C392        C  0.46793855  0.23532480  0.23991736     0.10200
H393        H  0.05698645  0.19755735  0.25033444     0.14700
H394        H  0.49397224  0.28285138  0.23476326     0.00500
H395        H  0.50001546  0.23738995  0.29117000     0.15000
H396        H  0.45473176  0.18693625  0.24901367     0.14800
C397        C  0.47043095  0.33892204  0.29736879    -0.05700
C398        C  0.49803265  0.35903706  0.29530197     0.00300
C399        C  0.02291955  0.34767606  0.28348462    -0.08300
C400        C  0.02053710  0.31859333  0.27225269    -0.05700
C401        C  0.49486546  0.29821063  0.27482091     0.00300
C402        C  0.46823243  0.30879401  0.28732316    -0.08200
C403        C  0.43662547  0.28956744  0.28920245     0.62200
H404        H  0.45048336  0.34672086  0.30724777     0.12900
H405        H  0.04139784  0.30995062  0.26332052     0.12900
C406        C  0.05515661  0.36621716  0.28303552     0.62400
F407        F  0.41343006  0.30496991  0.30159170    -0.22800
F408        F  0.44335457  0.25875570  0.29658597    -0.20100
F409        F  0.42258861  0.28681699  0.27099266    -0.19800
F410        F  0.07060909  0.36355383  0.30087331    -0.19800
F411        F  0.04873393  0.39898813  0.27906432    -0.20100
F412        F  0.07706238  0.35382078  0.26883745    -0.22800
C413        C  0.00361881  0.11600332  0.28177785    -0.05700
C414        C  0.51090761  0.11695831  0.29857031     0.00300
C415        C  0.52161453  0.14757530  0.30562214    -0.08300
C416        C  0.52125081  0.17441680  0.29295640    -0.05700
C417        C  0.50886502  0.17253053  0.27377844     0.00300
C418        C  0.00510036  0.14187098  0.26836703    -0.08200
C419        C  0.00296502  0.13156967  0.24697000     0.62200
H420        H  0.99833480  0.09141881  0.27658462     0.12900
H421        H  0.53151171  0.19701882  0.29814596     0.12900
C422        C  0.53255161  0.15234093  0.32661268     0.62400
F423        F  0.97096888  0.12204369  0.24308653    -0.22800
F424        F  0.02447448  0.10499073  0.24338700    -0.20100
F425        F  0.01176612  0.15560878  0.23404802    -0.19800
F426        F  0.56186557  0.13484597  0.32963162    -0.19800
F427        F  0.50825317  0.14161462  0.33932662    -0.20100
F428        F  0.53800216  0.18501496  0.33105232    -0.22800
C429        C  0.46463751  0.12991172  0.42197864    -0.05700
C430        C  0.49086743  0.10641232  0.42141208     0.00300
C431        C  0.01658335  0.10442459  0.43891287    -0.08300
C432        C  0.01389723  0.12954757  0.45317439    -0.05700
C433        C  0.98663949  0.15155812  0.45405214     0.00300
C434        C  0.46041390  0.15232964  0.43763486    -0.08200
C435        C  0.42864159  0.17334265  0.43841508     0.62200
H436        H  0.44688190  0.13052594  0.41022026     0.12900
H437        H  0.03335553  0.13223252  0.46382024     0.12900
C438        C  0.04479993  0.07922731  0.44087118     0.62400
F439        F  0.40167608  0.15329001  0.43627177    -0.22800
F440        F  0.42892021  0.19551772  0.42330072    -0.20100
F441        F  0.42415694  0.19043023  0.45587412    -0.19800
F442        F  0.07238757  0.08934123  0.43057205    -0.19800
F443        F  0.03564078  0.04854371  0.43431725    -0.20100
F444        F  0.05353131  0.07591501  0.46025921    -0.22800
C445        C  0.01350609  0.36714561  0.42836536    -0.05700
C446        C  0.48200939  0.36485507  0.41408063     0.00300
C447        C  0.45432426  0.34481865  0.41828589    -0.08300
C448        C  0.45449714  0.32624862  0.43552913    -0.05700
C449        C  0.48249861  0.32412977  0.44741407     0.00300
C450        C  0.01688507  0.34509649  0.44387161    -0.08200
C451        C  0.04654925  0.34909118  0.45703981     0.62200
H452        H  0.03089687  0.38688332  0.42703134     0.12900
H453        H  0.43325919  0.31170585  0.43934845     0.12900
C454        C  0.42589415  0.34007226  0.40422842     0.62400
F455        F  0.07488510  0.35283112  0.44568396    -0.22800
F456        F  0.05231295  0.32240622  0.46889688    -0.20100
F457        F  0.04145354  0.37684490  0.46864486    -0.19800
F458        F  0.43739200  0.33934017  0.38508272    -0.19800
F459        F  0.40225069  0.36501556  0.40687363    -0.20100
F460        F  0.41058424  0.31048991  0.40738496    -0.22800
C461        C  0.13119716  0.01024132  0.42383370    -0.05700
C462        C  0.11228575  0.48514689  0.41970207     0.00300
C463        C  0.11274063  0.46230851  0.43524178    -0.08300
C464        C  0.13688643  0.46530058  0.44976159    -0.05700
C465        C  0.15872488  0.49144915  0.45004970     0.00300
C466        C  0.15391458  0.01496320  0.43892654    -0.08200
C467        C  0.17221887  0.04706694  0.44039015     0.62200
H468        H  0.12840826  0.02895085  0.41285168     0.12900
H469        H  0.13903202  0.44703187  0.46107816     0.12900
C470        C  0.08738995  0.43568282  0.43735553     0.62400
F471        F  0.16481901  0.06774331  0.42504444    -0.22800
F472        F  0.20618513  0.04126471  0.44015508    -0.20100
F473        F  0.17078645  0.56195653  0.45567611    -0.19800
F474        F  0.10505004  0.90527456  0.42464829    -0.19800
F475        F  0.05594770  0.44789025  0.43307633    -0.20100
F476        F  0.08624598  0.42411554  0.45626744    -0.22800
C477        C  0.37252403  0.46900753  0.42520104    -0.05700
C478        C  0.36922233  0.49590782  0.41263727     0.00300
C479        C  0.34401129  0.52031881  0.41646700    -0.08300
C480        C  0.32508486  0.51832701  0.43375791    -0.05700
C481        C  0.32883638  0.49176139  0.44641418     0.00300
C482        C  0.35214729  0.46613375  0.44189409    -0.08200
C483        C  0.35848232  0.93502201  0.45665269     0.62200
H484        H  0.39329071  0.95021686  0.42361568     0.12900
H485        H  0.30622106  0.53707753  0.43724610     0.12900
C486        C  0.33521354  0.54736157  0.40217132     0.62400
F487        F  0.37673521  0.41226987  0.44628112    -0.22800
F488        F  0.32393068  0.42150157  0.45597060    -0.20100
F489        F  0.36924251  0.94548129  0.47470227    -0.19800
F490        F  0.33763268  0.53580381  0.38309787    -0.19800
F491        F  0.35485090  0.07022647  0.40561509    -0.20100
F492        F  0.30284602  0.55898053  0.40513406    -0.22800
C493        C  0.12569263  0.02624335  0.57708194    -0.05700
C494        C  0.11814088  0.49770348  0.58400287     0.00300
C495        C  0.13343851  0.46788930  0.57668352    -0.08300
C496        C  0.15411048  0.46927965  0.56008424    -0.05700
C497        C  0.16281533  0.49919484  0.55198304     0.00300
C498        C  0.14978701  0.02749948  0.56208333    -0.08200
C499        C  0.16082278  0.06048862  0.55447376     0.62200
H500        H  0.11289931  0.04872540  0.58172906     0.12900
H501        H  0.16507101  0.44697375  0.55368075     0.12900
C502        C  0.12940034  0.43472939  0.58625735     0.62400
F503        F  0.14601161  0.08650813  0.56482854    -0.22800
F504        F  0.15478430  0.56708068  0.53415985    -0.20100
F505        F  0.19488008  0.06270920  0.55628263    -0.19800
F506        F  0.09738128  0.42453952  0.58387897    -0.19800
F507        F  0.14189595  0.94404064  0.61242759    -0.20100
F508        F  0.15058850  0.41073721  0.57810607    -0.22800
C509        C  0.35962304  0.52294925  0.57718110    -0.05700
C510        C  0.37983490  0.49465947  0.57971221     0.00300
C511        C  0.37967690  0.46921931  0.56522008    -0.08300
C512        C  0.35595328  0.47124530  0.55037078    -0.05700
C513        C  0.33451031  0.49867272  0.54865044     0.00300
C514        C  0.33740635  0.52574638  0.56161719    -0.08200
C515        C  0.31755173  0.55759416  0.55888707     0.62200
H516        H  0.36071200  0.54277829  0.58782062     0.12900
H517        H  0.35383803  0.45110131  0.53998813     0.12900
C518        C  0.40412488  0.44009307  0.56457682     0.62400
F519        F  0.32710290  0.58191512  0.57180026    -0.22800
F520        F  0.28405881  0.55275230  0.56190192    -0.20100
F521        F  0.32485393  0.07108481  0.53868153    -0.19800
F522        F  0.39134229  0.41449283  0.57513032    -0.19800
F523        F  0.43805138  0.95323721  0.57172538    -0.20100
F524        F  0.41386484  0.93518151  0.54479783    -0.22800
C525        C  0.46665244  0.13548075  0.58004740    -0.05700
C526        C  0.49529490  0.11583309  0.58329768     0.00300
C527        C  0.02110612  0.12661744  0.57509037    -0.08300
C528        C  0.01900822  0.14908539  0.55963037    -0.05700
C529        C  0.49390485  0.16315657  0.55341419     0.00300
C530        C  0.46526252  0.15876827  0.56513963    -0.08200
C531        C  0.43314450  0.17819782  0.56167007     0.62200
H532        H  0.44512225  0.13284527  0.58943651     0.12900
H533        H  0.04046457  0.15321725  0.55034922     0.12900
C534        C  0.05367057  0.10778838  0.57823065     0.62400
F535        F  0.40781753  0.16901541  0.57417673    -0.22800
F536        F  0.42282192  0.17295466  0.54273766    -0.20100
F537        F  0.43803087  0.21133838  0.56459439    -0.19800
F538        F  0.04836799  0.07435808  0.57771045    -0.19800
F539        F  0.06672092  0.11664151  0.59605842    -0.20100
F540        F  0.07715631  0.11432466  0.56393586    -0.22800
C541        C  0.46359736  0.36081935  0.57901902    -0.05700
C542        C  0.49344639  0.37763595  0.58160640     0.00300
C543        C  0.01106141  0.38673562  0.55964808    -0.08300
C544        C  0.00858791  0.36078044  0.54600802    -0.05700
C545        C  0.48568585  0.33305003  0.54981925     0.00300
C546        C  0.45916367  0.33879156  0.56327875    -0.08200
C547        C  0.42645070  0.32156333  0.56102553     0.62200
H548        H  0.44383115  0.36428051  0.58978961     0.12900
H549        H  0.02559083  0.35946695  0.53356879     0.12900
C550        C  0.03453669  0.41376342  0.55412501     0.62400
F551        F  0.40276624  0.33301127  0.57450098    -0.22800
F552        F  0.43114587  0.28816388  0.56362464    -0.20100
F553        F  0.41419219  0.32699724  0.54254867    -0.19800
F554        F  0.06652958  0.40071548  0.55227061    -0.19800
F555        F  0.54536572  0.42472217  0.57299610    -0.20100
F556        F  0.02525205  0.42630306  0.53625486    -0.22800
C557        C  0.11890674  0.26035970  0.22224824    -0.05700
C558        C  0.11517255  0.25902522  0.20200239     0.00300
C559        C  0.08298676  0.25659617  0.19413828    -0.08300
C560        C  0.05559702  0.25304422  0.20701132    -0.05700
C561        C  0.05963718  0.25196524  0.22734966     0.00300
C562        C  0.09171524  0.25734956  0.23516821    -0.08200
C563        C  0.09931166  0.26026372  0.25680783     0.62200
H564        H  0.14361529  0.26307017  0.22808978     0.12900
H565        H  0.03111818  0.24917405  0.20121014     0.12900
C566        C  0.07795697  0.25692683  0.17222614     0.62400
F567        F  0.12164679  0.23547214  0.26179057    -0.22800
F568        F  0.07178309  0.25845037  0.26890375    -0.20100
F569        F  0.11361983  0.29024202  0.26036669    -0.19800
F570        F  0.09425799  0.23004300  0.16359104    -0.19800
F571        F  0.09058347  0.28537914  0.16457905    -0.20100
F572        F  0.04467227  0.25582552  0.16752414    -0.22800
C573        C  0.37939080  0.24011223  0.21958400    -0.05700
C574        C  0.38541583  0.25370286  0.20132842     0.00300
C575        C  0.41805221  0.26249469  0.19602884    -0.08300
C576        C  0.44387768  0.25670418  0.20935906    -0.05700
C577        C  0.43809040  0.24276449  0.22776414     0.00300
C578        C  0.40467086  0.23543992  0.23328383    -0.08200
C579        C  0.39280499  0.22360325  0.25313874     0.62200
H580        H  0.35415400  0.23357482  0.22336801     0.12900
H581        H  0.46911604  0.26231118  0.20522337     0.12900
C582        C  0.42577110  0.27672975  0.17613858     0.62400
F583        F  0.36666732  0.24379065  0.25976272    -0.22800
F584        F  0.41651930  0.22386115  0.26737801    -0.20100
F585        F  0.38152205  0.19196275  0.25115344    -0.19800
F586        F  0.41032869  0.30729455  0.17458099    -0.19800
F587        F  0.41450719  0.25615029  0.16157430    -0.20100
F588        F  0.45956537  0.28042096  0.17318240    -0.22800
C589        C  0.27797407  0.08422603  0.06485258    -0.05700
C590        C  0.25277149  0.08816118  0.05114252     0.00300
C591        C  0.22837548  0.11355388  0.05393404    -0.08300
C592        C  0.23043134  0.13452431  0.07043574    -0.05700
C593        C  0.25561462  0.13050566  0.08430933     0.00300
C594        C  0.27939865  0.10416960  0.08172300    -0.08200
C595        C  0.30541622  0.09532291  0.09678737     0.62200
H596        H  0.29616835  0.06441629  0.06247082     0.12900
H597        H  0.21224837  0.15437207  0.07263686     0.12900
C598        C  0.19994103  0.11798039  0.03981494     0.62400
F599        F  0.31652084  0.06295478  0.09457392    -0.22800
F600        F  0.29240448  0.09877837  0.11552263    -0.20100
F601        F  0.33250926  0.11509801  0.09453541    -0.19800
F602        F  0.18253297  0.08923194  0.03843506    -0.19800
F603        F  0.21212431  0.12585457  0.02155880    -0.20100
F604        F  0.17799244  0.14292543  0.04584004    -0.22800
C605        C  0.27958154  0.41121105  0.05987740    -0.05700
C606        C  0.24993751  0.41620646  0.04980918     0.00300
C607        C  0.22184389  0.39787206  0.05476802    -0.08300
C608        C  0.22381327  0.37649581  0.07071247    -0.05700
C609        C  0.25304293  0.37239687  0.08160549     0.00300
C610        C  0.28207441  0.38903274  0.07543506    -0.08200
C611        C  0.31578478  0.38343180  0.08467256     0.62200
H612        H  0.30084096  0.42516842  0.05537863     0.12900
H613        H  0.20221962  0.36279525  0.07473062     0.12900
C614        C  0.18993315  0.40111386  0.04331467     0.62400
F615        F  0.34004610  0.40236504  0.07622270    -0.22800
F616        F  0.32560639  0.35088222  0.08206466    -0.20100
F617        F  0.31419772  0.39143801  0.10435091    -0.19800
F618        F  0.19597335  0.39174056  0.02408390    -0.19800
F619        F  0.17821792  0.43334993  0.04394985    -0.20100
F620        F  0.16529100  0.38151112  0.05074609    -0.22800
C621        C  0.24077859  0.10786487  0.94863866    -0.05700
C622        C  0.26674521  0.08430834  0.94925631     0.00300
C623        C  0.29296038  0.08534901  0.93528677    -0.08300
C624        C  0.29016782  0.10768169  0.91980586    -0.05700
C625        C  0.26311843  0.13016217  0.91851009     0.00300
C626        C  0.23917429  0.13163453  0.93390104    -0.08200
C627        C  0.21244282  0.15842207  0.93528375     0.62200
H628        H  0.22148751  0.10733160  0.95982355     0.12900
H629        H  0.30921494  0.10751033  0.90849781     0.12900
C630        C  0.32436360  0.06415710  0.93721566     0.62400
F631        F  0.19889995  0.16061261  0.95395765    -0.22800
F632        F  0.18754678  0.15151961  0.92228907    -0.20100
F633        F  0.22553637  0.18866674  0.93111966    -0.19800
F634        F  0.31750344  0.03131145  0.93490158    -0.19800
F635        F  0.33769155  0.06918379  0.95548230    -0.20100
F636        F  0.34821095  0.07186170  0.92336584    -0.22800
C637        C  0.28454947  0.41496481  0.93651408    -0.05700
C638        C  0.25548804  0.41924787  0.94787691     0.00300
C639        C  0.22740205  0.40062102  0.94351219    -0.08300
C640        C  0.22916816  0.37846149  0.92760070    -0.05700
C641        C  0.25813175  0.37388358  0.91600181     0.00300
C642        C  0.28671174  0.39228425  0.92073497    -0.08200
C643        C  0.31950753  0.38821676  0.90956778     0.62200
H644        H  0.30567200  0.42958553  0.94027548     0.12900
H645        H  0.20771557  0.36406860  0.92438738     0.12900
C646        C  0.19566297  0.40413773  0.95569713     0.62400
F647        F  0.34299273  0.40986882  0.91611702    -0.22800
F648        F  0.31483779  0.39400509  0.88992376    -0.20100
F649        F  0.33230841  0.35673757  0.91206337    -0.19800
F650        F  0.17053101  0.38530570  0.94826316    -0.19800
F651        F  0.18456947  0.43658754  0.95614286    -0.20100
F652        F  0.20167875  0.39401403  0.97453301    -0.22800
C653        C  0.47642802  0.17498478  0.72691582    -0.05700
C654        C  0.50261057  0.19530617  0.72168150     0.00300
C655        C  0.01957213  0.18666293  0.70254518    -0.08300
C656        C  0.01318555  0.15682237  0.69294974    -0.05700
C657        C  0.48949183  0.13771584  0.69951262     0.00300
C658        C  0.46965544  0.14602437  0.71628636    -0.08200
C659        C  0.44238161  0.12406917  0.72358301     0.62200
H660        H  0.46190231  0.18149114  0.73989096     0.12900
H661        H  0.02677215  0.15064663  0.67955167     0.12900
C662        C  0.04395746  0.20921269  0.69266964     0.62400
F663        F  0.43072859  0.13375683  0.74195417    -0.22800
F664        F  0.45422351  0.09196876  0.72482304    -0.20100
F665        F  0.41593198  0.12554862  0.71097084    -0.19800
F666        F  0.07456089  0.19315115  0.69063860    -0.19800
F667        F  0.04824975  0.23838849  0.70268850    -0.20100
F668        F  0.03239094  0.21692514  0.67432095    -0.22800
C669        C  0.48728991  0.30764740  0.70850911    -0.05700
C670        C  0.49370149  0.31199727  0.72845790     0.00300
C671        C  0.99715531  0.34374512  0.73000119    -0.08300
C672        C  0.99517395  0.36874090  0.71606663    -0.05700
C673        C  0.48879246  0.36663207  0.70373801     0.00300
C674        C  0.48423427  0.33470290  0.69595890    -0.08200
C675        C  0.47694531  0.32935466  0.67447835     0.62200
H676        H  0.48597241  0.28287031  0.70268968     0.12900
H677        H  0.99787101  0.39411562  0.72068807     0.12900
C678        C  0.00019502  0.35487805  0.75112742     0.62400
F679        F  0.47547978  0.29630733  0.66965315    -0.22800
F680        F  0.00427346  0.33133030  0.65728614    -0.20100
F681        F  0.44662255  0.34411741  0.67018933    -0.19800
F682        F  0.03084388  0.36878677  0.75366969    -0.19800
F683        F  0.48687213  0.32568747  0.76947782    -0.20100
F684        F  0.97560181  0.37839422  0.75540896    -0.22800
C685        C  0.07301149  0.27123518  0.78765283    -0.05700
C686        C  0.07510678  0.25389090  0.76970023     0.00300
C687        C  0.10693556  0.24051633  0.76386832    -0.08300
C688        C  0.13192855  0.23739199  0.77803969    -0.05700
C689        C  0.12829927  0.25199577  0.79663115     0.00300
C690        C  0.09890821  0.27063822  0.80121068    -0.08200
C691        C  0.09422182  0.28913468  0.82052870     0.62200
H692        H  0.05047370  0.28527825  0.79114824     0.12900
H693        H  0.15550896  0.22540220  0.77409364     0.12900
C694        C  0.11756424  0.23357385  0.74279441     0.62400
F695        F  0.06224649  0.30212116  0.82288203    -0.22800
F696        F  0.11580489  0.31495511  0.82135348    -0.20100
F697        F  0.10024173  0.26813401  0.83587763    -0.19800
F698        F  0.09667173  0.24870887  0.72964895    -0.19800
F699        F  0.11900199  0.20006135  0.73922689    -0.20100
F700        F  0.14887286  0.24581405  0.73941318    -0.22800
C701        C  0.42045000  0.26517748  0.76790565    -0.05700
C702        C  0.44542299  0.24157922  0.77204880     0.00300
C703        C  0.43842528  0.21670300  0.78577953    -0.08300
C704        C  0.40857905  0.21900693  0.79660962    -0.05700
C705        C  0.38444316  0.24369027  0.79330953     0.00300
C706        C  0.38946891  0.26589462  0.77780379    -0.08200
C707        C  0.36293960  0.29048477  0.77135095     0.62200
H708        H  0.42545476  0.28369027  0.75708753     0.12900
H709        H  0.40425947  0.20120059  0.80794995     0.12900
C710        C  0.46073895  0.18686457  0.78958503     0.62400
F711        F  0.36482721  0.29461995  0.75133666    -0.22800
F712        F  0.36766141  0.32048331  0.78043799    -0.20100
F713        F  0.33131258  0.27995706  0.77564908    -0.19800
F714        F  0.47334439  0.18931584  0.80821877    -0.19800
F715        F  0.48677457  0.18299184  0.77635468    -0.20100
F716        F  0.44213529  0.15882075  0.78837026    -0.22800
C717        C  0.30138882  0.02010356  0.71160654    -0.05700
C718        C  0.30385010  0.49347583  0.72862435     0.00300
C719        C  0.33021833  0.46996711  0.73023565    -0.08300
C720        C  0.35889862  0.47360936  0.71852394    -0.05700
C721        C  0.36209419  0.49989980  0.70556389     0.00300
C722        C  0.33020922  0.02331425  0.69998372    -0.08200
C723        C  0.33160733  0.05120515  0.68547075     0.62200
H724        H  0.28099042  0.03775390  0.71034507     0.12900
H725        H  0.37887278  0.45530698  0.71902293     0.12900
C726        C  0.32734184  0.43987365  0.74290355     0.62400
F727        F  0.31193524  0.57666396  0.69576782    -0.22800
F728        F  0.34148641  0.54746923  0.67341983    -0.20100
F729        F  0.35701326  0.07192975  0.69022196    -0.19800
F730        F  0.30054594  0.42202759  0.73695907    -0.19800
F731        F  0.31551472  0.94422219  0.75637358    -0.20100
F732        F  0.34451882  0.91561401  0.73359038    -0.22800
C733        C  0.15059443  0.47926967  0.73132268    -0.05700
C734        C  0.17874686  0.49784123  0.72636335     0.00300
C735        C  0.17644673  0.51793609  0.70929299    -0.11900
C736        C  0.14861444  0.51513718  0.69717869    -0.05700
C737        C  0.12177897  0.49547447  0.70190550     0.00300
C738        C  0.12233694  0.47774956  0.71943025    -0.08200
C739        C  0.09247775  0.45832454  0.72586133     0.62200
H740        H  0.14973605  0.46658441  0.74497247     0.12900
H741        H  0.14745309  0.52924286  0.68386081     0.12900
C742        C  0.18994151  0.04681026  0.70562882     0.62400
F743        F  0.09661743  0.44492631  0.74417092    -0.22800
F744        F  0.08754326  0.43290036  0.71272859    -0.20100
F745        F  0.05972947  0.97599689  0.73315313    -0.19800
F746        F  0.18535397  0.57140690  0.69695964    -0.19800
F747        F  0.20577594  0.03749173  0.68830637    -0.20100
F748        F  0.21361830  0.05557220  0.71885314    -0.22800
C749        C  0.22718314  0.05785077  0.79244606    -0.05700
C750        C  0.24856525  0.05352731  0.77624727     0.00300
C751        C  0.27387839  0.07657742  0.77305029    -0.08300
C752        C  0.27644713  0.10332526  0.78620481    -0.05700
C753        C  0.25417080  0.10817053  0.80198560     0.00300
C754        C  0.22981501  0.08429816  0.80564263    -0.08200
C755        C  0.20667774  0.08607609  0.82338375     0.62200
H756        H  0.20730960  0.04078118  0.79430603     0.12900
H757        H  0.29497820  0.12166750  0.78371302     0.12900
C758        C  0.29638670  0.07466180  0.75514133     0.62400
F759        F  0.19000557  0.05706484  0.82589332    -0.22800
F760        F  0.18313949  0.11105599  0.82118634    -0.20100
F761        F  0.22472084  0.09163015  0.84010068    -0.19800
F762        F  0.27723583  0.07673605  0.73861177    -0.19800
F763        F  0.31461273  0.04546009  0.75488879    -0.20100
F764        F  0.31862748  0.10004330  0.75471879    -0.22800
C765        C  0.25001506  0.40809638  0.76840989    -0.05700
C766        C  0.24848006  0.43896228  0.77784726     0.00300
C767        C  0.25070656  0.44077157  0.79847820    -0.08300
C768        C  0.25400660  0.41124813  0.80894288    -0.05700
C769        C  0.25424666  0.38055850  0.79937846     0.00300
C770        C  0.25287321  0.37880230  0.77885557    -0.08200
C771        C  0.25306239  0.34593882  0.76818335     0.62200
H772        H  0.24719875  0.40704647  0.75272077     0.12900
H773        H  0.25502598  0.41177511  0.82474162     0.12900
C774        C  0.24702395  0.47327528  0.80946743     0.62400
F775        F  0.25435482  0.34952728  0.74811112    -0.22800
F776        F  0.22451326  0.32951146  0.77299685    -0.20100
F777        F  0.28049552  0.32720597  0.77356446    -0.19800
F778        F  0.21675240  0.48805325  0.80515037    -0.19800
F779        F  0.27234033  0.49375267  0.80419605    -0.20100
F780        F  0.24819455  0.46920510  0.82949329    -0.22800
C781        C  0.09161099  0.28654299  0.06150882    -0.05700
C782        C  0.08725523  0.25714548  0.05128663     0.00300
C783        C  0.10403982  0.22808139  0.05692358    -0.08300
C784        C  0.12534318  0.22949411  0.07288371    -0.05700
C785        C  0.12979229  0.25882489  0.08354930     0.00300
C786        C  0.11259455  0.28813986  0.07767939    -0.08200
C787        C  0.11578634  0.32104862  0.08811015     0.62200
H788        H  0.07779645  0.30815454  0.05679553     0.12900
H789        H  0.13868433  0.20736303  0.07702994     0.12900
C790        C  0.09908981  0.19573293  0.04613745     0.62400
F791        F  0.09519848  0.34522886  0.08036204    -0.22800
F792        F  0.14802932  0.33134745  0.08617842    -0.20100
F793        F  0.10728767  0.31829656  0.10765157    -0.19800
F794        F  0.06589167  0.18785692  0.04649047    -0.19800
F795        F  0.11672885  0.17004342  0.05448318    -0.20100
F796        F  0.10966882  0.19843247  0.02694206    -0.22800
C797        C  0.39873009  0.22595736  0.05378407    -0.05700
C798        C  0.41665052  0.25421870  0.05004469     0.00300
C799        C  0.41053068  0.28310250  0.06125419    -0.08300
C800        C  0.38797370  0.28198565  0.07697357    -0.05700
C801        C  0.37091976  0.25324677  0.08152447     0.00300
C802        C  0.37546641  0.22494380  0.06925294    -0.08200
C803        C  0.35609765  0.19383317  0.07216462     0.62200
H804        H  0.40373134  0.20442706  0.04464040     0.12900
H805        H  0.38436565  0.30363243  0.08611213     0.12900
C806        C  0.42792528  0.31485854  0.05666321     0.62400
F807        F  0.36141639  0.17147075  0.05695546    -0.22800
F808        F  0.32238612  0.20140653  0.07310283    -0.20100
F809        F  0.36597659  0.17879326  0.08918372    -0.19800
F810        F  0.46161127  0.31117011  0.05990669    -0.19800
F811        F  0.41585142  0.34087332  0.06815280    -0.20100
F812        F  0.42306544  0.32292129  0.03733863    -0.22800
C813        C  0.08802475  0.27472505  0.93700017    -0.05700
C814        C  0.08988453  0.24869361  0.95011926     0.00300
C815        C  0.11305659  0.22255364  0.94696514    -0.08300
C816        C  0.13537099  0.22435691  0.93111088    -0.05700
C817        C  0.13388441  0.25052828  0.91788381     0.00300
C818        C  0.10906119  0.27572438  0.92050192    -0.08200
C819        C  0.10327152  0.30247341  0.90556665     0.62200
H820        H  0.06907204  0.29376404  0.93953641     0.12900
H821        H  0.15400081  0.20504931  0.92887452     0.12900
C822        C  0.11321801  0.19256975  0.95996900     0.62400
F823        F  0.07452782  0.32090077  0.90964347    -0.22800
F824        F  0.10001714  0.28847170  0.88718812    -0.20100
F825        F  0.12959531  0.32358240  0.90549845    -0.19800
F826        F  0.13540442  0.16841630  0.95326485    -0.19800
F827        F  0.08204212  0.17910350  0.96041451    -0.20100
F828        F  0.12187856  0.20142762  0.97873678    -0.22800
C829        C  0.39000491  0.27904395  0.92177798    -0.05700
C830        C  0.37489428  0.24927331  0.91694176     0.00300
C831        C  0.38040521  0.22147828  0.92898437    -0.08300
C832        C  0.40307570  0.22399612  0.94433068    -0.05700
C833        C  0.41907530  0.25337621  0.94834969     0.00300
C834        C  0.41151279  0.28178588  0.93754994    -0.08200
C835        C  0.42609886  0.31482109  0.94265496     0.62200
H836        H  0.38561016  0.30036497  0.91288229     0.12900
H837        H  0.40898306  0.20285430  0.95321160     0.12900
C838        C  0.36250113  0.18946293  0.92607136     0.62400
F839        F  0.41929774  0.32266124  0.96203165    -0.22800
F840        F  0.41287168  0.33986018  0.93141028    -0.20100
F841        F  0.46011044  0.31358322  0.93961193    -0.19800
F842        F  0.37400361  0.17389589  0.90913452    -0.19800
F843        F  0.32863085  0.19570257  0.92498318    -0.20100
F844        F  0.36765787  0.16815803  0.94141045    -0.22800
C845        C  0.30734115  0.51251754  0.29231226    -0.05700
C846        C  0.30716627  0.49449181  0.27475699     0.00300
C847        C  0.33332917  0.97972716  0.27124759    -0.08300
C848        C  0.36196798  0.98035797  0.28278292    -0.05700
C849        C  0.36502922  0.49619944  0.29749409     0.00300
C850        C  0.33550847  0.51276869  0.30423464    -0.08200
C851        C  0.33301827  0.52970420  0.32409348     0.62200
H852        H  0.28545938  0.52732401  0.29632625     0.12900
H853        H  0.38378284  0.96560147  0.27860164     0.12900
C854        C  0.33272873  0.95748375  0.25337993     0.62400
F855        F  0.30021515  0.53593822  0.32965101    -0.22800
F856        F  0.35067688  0.06522986  0.32422585    -0.20100
F857        F  0.34725642  0.50990614  0.33815286    -0.19800
F858        F  0.32801262  0.97604078  0.23692731    -0.19800
F859        F  0.30747089  0.43008653  0.25417646    -0.20100
F860        F  0.36216086  0.93943078  0.25084337    -0.22800
C861        C  0.19419552  0.98755789  0.29580919    -0.05700
C862        C  0.18971099  0.49885701  0.27598915     0.00300
C863        C  0.15640899  0.50645507  0.27023580    -0.08300
C864        C  0.13030711  0.50063558  0.28343117    -0.05700
C865        C  0.13566536  0.48548087  0.30131397     0.00300
C866        C  0.16811359  0.97949053  0.30866675    -0.08200
C867        C  0.17551541  0.96251431  0.32777531     0.62200
H868        H  0.21971583  0.98243282  0.29983435     0.12900
H869        H  0.10508462  0.50795735  0.27972634     0.12900
C870        C  0.14670494  0.52103092  0.25063455     0.62400
F871        F  0.20931004  0.95751179  0.33038032    -0.22800
F872        F  0.15926971  0.43117087  0.32756921    -0.20100
F873        F  0.16306908  0.98137665  0.34330143    -0.19800
F874        F  0.11639766  0.50926174  0.24481851    -0.19800
F875        F  0.16699932  0.01559041  0.23773724    -0.20100
F876        F  0.14370552  0.55484346  0.25249404    -0.22800
C877        C  0.23019930  0.10193817  0.23313208    -0.05700
C878        C  0.24993930  0.07361314  0.22816266     0.00300
C879        C  0.27220065  0.07577970  0.21163027    -0.08300
C880        C  0.27082008  0.10405527  0.20014800    -0.05700
C881        C  0.25010898  0.13106350  0.20484370     0.00300
C882        C  0.22975143  0.13044846  0.22172162    -0.08200
C883        C  0.20851152  0.16029567  0.22799647     0.62200
H884        H  0.21558692  0.10270790  0.24635694     0.12900
H885        H  0.28661629  0.10515807  0.18720847     0.12900
C886        C  0.29831713  0.05029077  0.20460907     0.62400
F887        F  0.19198389  0.15549600  0.24555559    -0.22800
F888        F  0.18490665  0.16702254  0.21403966    -0.20100
F889        F  0.22846100  0.18720137  0.23021807    -0.19800
F890        F  0.32855755  0.06531951  0.20237667    -0.19800
F891        F  0.28911374  0.03781015  0.18664786    -0.20100
F892        F  0.30359426  0.02454404  0.21694965    -0.22800
C893        C  0.27013452  0.44019498  0.21160184    -0.05700
C894        C  0.24553906  0.44475461  0.22619987     0.00300
C895        C  0.22292242  0.41910186  0.22972286    -0.08300
C896        C  0.22621611  0.38998897  0.21841974    -0.05700
C897        C  0.25068424  0.38576266  0.20376756     0.00300
C898        C  0.27333456  0.41124229  0.20031327    -0.08200
C899        C  0.30019081  0.40876996  0.18445677     0.62200
H900        H  0.28693560  0.45996939  0.20895059     0.12900
H901        H  0.20922364  0.37017996  0.22073722     0.12900
C902        C  0.19403565  0.42256848  0.24418740     0.62400
F903        F  0.31735109  0.43761976  0.18270255    -0.22800
F904        F  0.28603474  0.40221696  0.16656959    -0.20100
F905        F  0.32303630  0.38408265  0.18888837    -0.19800
F906        F  0.17549672  0.45053219  0.24022551    -0.19800
F907        F  0.20541851  0.42408791  0.26305481    -0.20100
F908        F  0.17298673  0.39626253  0.24305477    -0.22800
C909        C  0.24946983  0.53758464  0.23867486     0.86600
C910        C  0.28052838  0.53078465  0.25072405    -0.53600
C911        C  0.27822859  0.00786467  0.26303478     0.09500
C912        C  0.24649344  0.98784713  0.26060621     0.20500
C913        C  0.24445010  0.50628323  0.22620374    -0.54300
C914        C  0.24309772  0.98232260  0.23847817     0.09600
C915        C  0.22141822  0.53641720  0.25439592    -0.53900
C916        C  0.21721852  0.01190216  0.26567888     0.10200
H917        H  0.30099363  0.54761620  0.25146850     0.14700
H918        H  0.24735038  0.96512871  0.26924186     0.00500
H919        H  0.24024569  0.01137677  0.21244211     0.15000
H920        H  0.20371755  0.55586385  0.25805528     0.14800
N921        N  0.45037177  0.76133028  0.99852106    -0.36500
N922        N  0.00710595  0.76402879  0.97123994    -0.57000
N923        N  0.05600123  0.76547302  0.00177808    -0.36500
N924        N  0.00361535  0.76568374  0.03100721    -0.57000
C925        C  0.43393440  0.76655095  0.98172532     0.27100
C926        C  0.42901163  0.76867233  0.01342946     0.27100
C927        C  0.07502118  0.77322384  0.98620799     0.27100
C928        C  0.07319286  0.77293780  0.01794437     0.27100
C929        C  0.48117012  0.75488353  0.95868683     0.35700
C930        C  0.03495085  0.75982265  0.96021865     0.35700
C931        C  0.46830807  0.75994672  0.04079384     0.35700
C932        C  0.02995276  0.75963892  0.04250979     0.35700
C933        C  0.40144395  0.77671245  0.98599934    -0.21800
C934        C  0.39832316  0.77801128  0.00605103    -0.21800
C935        C  0.10480606  0.78570809  0.99250868    -0.21800
C936        C  0.10361124  0.78561941  0.01262983    -0.21800
C937        C  0.49433282  0.74429103  0.94080834    -0.22800
C938        C  0.02711036  0.74967408  0.94146350    -0.22800
C939        C  0.47524789  0.75166889  0.05992967    -0.22800
C940        C  0.01937572  0.74999993  0.06087056    -0.22800
C941        C  0.44703670  0.76060319  0.96271165    -0.18200
C942        C  0.43606022  0.76531066  0.03346067    -0.18200
C943        C  0.06318052  0.76558237  0.03717411    -0.18200
C944        C  0.06729070  0.76625521  0.96661174    -0.18200
H945        H  0.38195657  0.78238060  0.97574439     0.14700
H946        H  0.37596289  0.78484213  0.01426152     0.14700
H947        H  0.12550616  0.79333246  0.98354398     0.14700
H948        H  0.12322754  0.79311397  0.02223617     0.14700
H949        H  0.48090996  0.73749806  0.92784494     0.13000
H950        H  0.04396926  0.74477482  0.92925374     0.13000
H951        H  0.45771242  0.74666904  0.07157643     0.13000
H952        H  0.03458088  0.74406933  0.07331912     0.13000
H953        H  0.47359294  0.74993066  0.99976340     0.26300
H954        H  0.03476470  0.75154388  0.00139374     0.26300
C955        C  0.20507177  0.99642850  0.73997108     0.86600
C956        C  0.21450971  0.52715620  0.75161993    -0.53600
C957        C  0.24280497  0.52755765  0.76242297     0.09500
C958        C  0.26196594  0.99507123  0.75824427     0.20500
C959        C  0.23585885  0.99299622  0.72642429    -0.54300
C960        C  0.26560408  0.99271361  0.73577054     0.09600
C961        C  0.20973001  0.96718524  0.75382570    -0.53900
C962        C  0.23904953  0.96644637  0.76353737     0.10200
H963        H  0.19629508  0.54735574  0.75195021     0.14700
H964        H  0.28591377  0.99476191  0.76601146     0.00500
H965        H  0.23433329  0.99158033  0.71062130     0.15000
H966        H  0.19291304  0.94699617  0.75514370     0.14800
C967        C  0.03882152  0.75026982  0.76102896     0.86600
C968        C  0.03192290  0.78124036  0.74911862    -0.53600
C969        C  0.50529980  0.78083332  0.74046685     0.09500
C970        C  0.48536657  0.74871819  0.74072546     0.20500
C971        C  0.00666977  0.74601051  0.77329010    -0.54300
C972        C  0.47690941  0.74346904  0.76241150     0.09600
C973        C  0.03757911  0.72124273  0.74635897    -0.53900
C974        C  0.51052402  0.72051174  0.73565491     0.10200
H975        H  0.04881723  0.80156092  0.74873533     0.14700
H976        H  0.46324446  0.74910999  0.73121233     0.00500
H977        H  0.50019434  0.74345949  0.78974810     0.15000
H978        H  0.05619994  0.70152366  0.74569239     0.14800
N979        N  0.25393308  0.95087147  0.00073607    -0.36500
N980        N  0.24993745  0.50199879  0.03058478    -0.57000
N981        N  0.25291503  0.55333597  0.00190859    -0.36500
N982        N  0.25562692  0.50353163  0.97085174    -0.57000
C983        C  0.25881004  0.93339966  0.01719582     0.27100
C984        C  0.26392301  0.93162837  0.98536396     0.27100
C985        C  0.25929727  0.57069667  0.01836101     0.27100
C986        C  0.26265707  0.57143184  0.98652209     0.27100
C987        C  0.24208686  0.97730003  0.04126805     0.35700
C988        C  0.24421415  0.52837239  0.04251994     0.35700
C989        C  0.25650529  0.97297265  0.95933990     0.35700
C990        C  0.25065274  0.53090406  0.96024911     0.35700
C991        C  0.27209222  0.90255879  0.01220296    -0.21800
C992        C  0.27506906  0.90135922  0.99207585    -0.21800
C993        C  0.27315178  0.60032180  0.01336852    -0.21800
C994        C  0.27515449  0.60083499  0.99324827    -0.21800
C995        C  0.22992494  0.98842418  0.05928457    -0.22800
C996        C  0.23382084  0.51818017  0.06079429    -0.22800
C997        C  0.24862624  0.98245231  0.94054852    -0.22800
C998        C  0.24133737  0.52254349  0.94143653    -0.22800
C999        C  0.24934397  0.94396424  0.03636573    -0.18200
C1000       C  0.26055475  0.94009420  0.96547397    -0.18200
C1001       C  0.25835544  0.56290637  0.96662142    -0.18200
C1002       C  0.25091909  0.56126888  0.03761618    -0.18200
H1003       H  0.27818971  0.88271345  0.02200613     0.14700
H1004       H  0.28397634  0.88047709  0.98336425     0.14700
H1005       H  0.28050587  0.61977374  0.02319159     0.14700
H1006       H  0.28438549  0.62074105  0.98455398     0.14700
H1007       H  0.22242321  0.97378119  0.07158789     0.13000
H1008       H  0.22791836  0.53340325  0.07351449     0.13000
H1009       H  0.24331021  0.96671768  0.92818339     0.13000
H1010       H  0.23647338  0.53897341  0.92944503     0.13000
H1011       H  0.24081708  0.97314536  0.99982545     0.26300
H1012       H  0.23910252  0.53216313  0.00111658     0.26300
C1013       C  0.35964147  0.75242641  0.89650490     0.42600
N1014       N  0.32871908  0.73553569  0.87331262     0.01500
C1015       C  0.22637622  0.83566704  0.81788515    -0.06400
H1016       H  0.20539167  0.84364607  0.89312314     0.07000
C1017       C  0.17415668  0.72691454  0.89355098    -0.06800
Co1018     Co  0.29981415  0.79224290  0.85149593     0.74200
N1019       N  0.24159509  0.81941525  0.87431098    -0.25900
Co1020     Co  0.21434273  0.79238978  0.85434131     0.74100
C1021       C  0.16217880  0.75781990  0.90267784     0.42700
N1022       N  0.24512708  0.68370089  0.87799550     0.01100
N1023       N  0.19117434  0.76817107  0.87704904     0.01200
N1024       N  0.28250391  0.83591054  0.81699297    -0.46800
H1025       H  0.35069297  0.80647985  0.88800143     0.06900
N1026       N  0.27431431  0.81920506  0.87360430     0.01500
N1027       N  0.18816704  0.76411570  0.83445050     0.01200
C1028       C  0.15490542  0.74936717  0.81193680     0.42800
N1029       N  0.27789278  0.68361177  0.87683309    -0.25400
C1030       C  0.34032391  0.77282673  0.81370486    -0.06300
N1031       N  0.34776331  0.72523579  0.88776175    -0.46500
N1032       N  0.16816520  0.77561579  0.82080519    -0.46700
C1033       C  0.35195840  0.74218131  0.80416297     0.42600
N1034       N  0.27132577  0.81644380  0.83082210     0.01500
N1035       N  0.27463722  0.67855661  0.83446186    -0.25400
N1036       N  0.32763933  0.76780653  0.87205709    -0.25900
N1037       N  0.24188848  0.67878762  0.83559465     0.01100
H1038       H  0.31035885  0.64722937  0.81895493     0.07000
H1039       H  0.16223314  0.69463392  0.81938160     0.07000
N1040       N  0.23862212  0.81606384  0.83175472    -0.26000
N1041       N  0.19181912  0.73585969  0.87788447    -0.25600
N1042       N  0.32466116  0.73122055  0.83050602     0.01500
C1043       C  0.26132381  0.84962497  0.89882999     0.42900
C1044       C  0.29015957  0.66597572  0.89164735    -0.06800
N1045       N  0.18873578  0.73169130  0.83528356    -0.25600
H1046       H  0.16907325  0.70187612  0.89737535     0.07000
N1047       N  0.28707508  0.83681134  0.88798623    -0.46800
H1048       H  0.31622448  0.66091427  0.89413591     0.07000
C1049       C  0.25419995  0.63982347  0.81508334     0.42700
C1050       C  0.34666910  0.78059243  0.88584759    -0.06300
Co1051     Co  0.30220842  0.70671096  0.85376054     0.73800
N1052       N  0.23409236  0.66686091  0.89309544    -0.46500
C1053       C  0.25554182  0.84823033  0.80786904     0.43000
N1054       N  0.34164809  0.71752876  0.81567555    -0.46500
Co1055     Co  0.21631125  0.70705627  0.85668400     0.73900
C1056       C  0.16833760  0.72011616  0.82156958    -0.06800
C1057       C  0.23110126  0.83819704  0.88948816    -0.06400
N1058       N  0.32361366  0.76362491  0.82971152    -0.25900
N1059       N  0.17387036  0.78218793  0.89159032    -0.46700
H1060       H  0.20044527  0.84250897  0.81614732     0.07000
C1061       C  0.28477843  0.65494839  0.82169876    -0.06800
Cl1062     Cl  0.25817689  0.74949039  0.85400457    -0.49800
C1063       C  0.26101509  0.65521558  0.90267521     0.42700
H1064       H  0.34545833  0.79789854  0.80990030     0.06900
N1065       N  0.22878053  0.65613216  0.82427415    -0.46500
C1066       C  0.35627677  0.75781898  0.18944803     0.42600
N1067       N  0.32161046  0.74415703  0.16731850     0.01500
C1068       C  0.21885534  0.84688097  0.11373933    -0.06400
H1069       H  0.19378370  0.85394381  0.18692724     0.07000
C1070       C  0.16029326  0.72862658  0.18212483    -0.06800
Co1071     Co  0.29125891  0.80291938  0.14800304     0.74200
N1072       N  0.23111015  0.82579694  0.17063758    -0.25900
Co1073     Co  0.20531694  0.80062548  0.14911408     0.74100
C1074       C  0.14395328  0.75772729  0.19104165     0.42700
N1075       N  0.23855404  0.68979110  0.16761172     0.01100
N1076       N  0.18025384  0.77281070  0.16988057     0.01200
N1077       N  0.27486937  0.84776231  0.11398663    -0.46800
H1078       H  0.34414544  0.81297989  0.18534583     0.06900
N1079       N  0.26388461  0.82675254  0.17009794     0.01500
N1080       N  0.18132364  0.77457088  0.12747800     0.01200
C1081       C  0.15111822  0.76229129  0.10305918     0.42800
N1082       N  0.27135207  0.69076689  0.16712017    -0.25400
C1083       C  0.33150258  0.79077914  0.10971690    -0.06300
N1084       N  0.34339965  0.73196332  0.17984628    -0.46500
N1085       N  0.16270970  0.78751050  0.11364755    -0.46700
C1086       C  0.34296719  0.76225432  0.09808717     0.42600
N1087       N  0.26314240  0.82866129  0.12782471     0.01500
N1088       N  0.27054235  0.69241720  0.12454299    -0.25400
N1089       N  0.31940000  0.77654960  0.16810879    -0.25900
N1090       N  0.23789259  0.69053148  0.12488924     0.01100
H1091       H  0.30893618  0.67044743  0.10639755     0.07000
H1092       H  0.16068056  0.70667533  0.10764324     0.07000
N1093       N  0.23045172  0.82769525  0.12806863    -0.26000
N1094       N  0.18226705  0.74033411  0.16917542    -0.25600
N1095       N  0.31893069  0.74607629  0.12441956     0.01500
C1096       C  0.24934139  0.86199992  0.19229068     0.42900
C1097       C  0.28342521  0.67029983  0.18068006    -0.06800
N1098       N  0.18298514  0.74215217  0.12663856    -0.25600
H1099       H  0.15408893  0.70309753  0.18362633     0.07000
N1100       N  0.27571339  0.84814756  0.18271975    -0.46800
H1101       H  0.30946465  0.66465046  0.18302297     0.07000
C1102       C  0.25418292  0.65788122  0.10129008     0.42700
C1103       C  0.34020696  0.78746227  0.18175572    -0.06300
Co1104     Co  0.29618811  0.71788581  0.14589081     0.73800
N1105       N  0.22735987  0.66941057  0.18094928    -0.46500
C1106       C  0.24847892  0.86033065  0.10446133     0.43000
N1107       N  0.33451593  0.73538792  0.10827224    -0.46500
Co1108     Co  0.20993140  0.71517351  0.14709988     0.73900
C1109       C  0.16464538  0.73203767  0.11164750    -0.06800
C1110       C  0.21964067  0.84700722  0.18442985    -0.06400
N1111       N  0.31690645  0.77839455  0.12553353    -0.25900
N1112       N  0.15737671  0.78417810  0.18259433    -0.46700
H1113       H  0.19295541  0.85163494  0.11062383     0.07000
C1114       C  0.28289843  0.67340272  0.10994900    -0.06800
Cl1115     Cl  0.25062195  0.75909283  0.14766097    -0.49800
C1116       C  0.25410919  0.65645807  0.19008316     0.42700
H1117       H  0.33294137  0.81663833  0.10658913     0.06900
N1118       N  0.22703033  0.67014660  0.11119698    -0.46500
C1119       C  0.08460429  0.99355389  0.69319381     0.42600
N1120       N  0.05715716  0.97986172  0.66771850     0.01500
C1121       C  0.46173999  0.57950834  0.60941736    -0.06400
H1122       H  0.43168569  0.59699531  0.68051251     0.07000
C1123       C  0.40318549  0.96915023  0.68081506    -0.06800
Co1124     Co  0.03174374  0.54256615  0.64591919     0.74200
N1125       N  0.46968225  0.56581124  0.66708907    -0.25900
Co1126     Co  0.44614195  0.53752420  0.64573204     0.74100
C1127       C  0.38701656  0.99873163  0.68925510     0.42700
N1128       N  0.47833535  0.92802088  0.66782059     0.01100
N1129       N  0.42131191  0.51125220  0.66710155     0.01200
N1130       N  0.01711366  0.58640547  0.61053145    -0.46800
H1131       H  0.08314835  0.55176111  0.68356948     0.06900
N1132       N  0.00314121  0.56723641  0.66750733     0.01500
N1133       N  0.42399113  0.50907096  0.62403474     0.01200
C1134       C  0.40261926  0.99672231  0.59759501     0.42800
N1135       N  0.00766966  0.92624759  0.66526078    -0.25400
C1136       C  0.07962819  0.52868657  0.61051871    -0.06300
N1137       N  0.07533782  0.96765066  0.68207887    -0.46500
N1138       N  0.40883010  0.51994922  0.60823596    -0.46700
C1139       C  0.09271632  0.99764038  0.60232910     0.42600
N1140       N  0.00500087  0.56841775  0.62482709     0.01500
N1141       N  0.00869525  0.92984075  0.62254618    -0.25400
N1142       N  0.05749658  0.51549162  0.66674328    -0.25900
N1143       N  0.48116823  0.92880645  0.62495791     0.01100
H1144       H  0.04577054  0.90796399  0.60293821     0.07000
H1145       H  0.40810503  0.94192742  0.60560498     0.07000
N1146       N  0.47267374  0.56216632  0.62458526    -0.26000
N1147       N  0.42414431  0.98007093  0.66717433    -0.25600
N1148       N  0.05917560  0.98237449  0.62494535     0.01500
C1149       C  0.48674579  0.60373414  0.68852491     0.42900
C1150       C  0.01900039  0.90388547  0.67793588    -0.06800
N1151       N  0.42698780  0.97908965  0.62462757    -0.25600
H1152       H  0.39757407  0.94363855  0.68310363     0.07000
N1153       N  0.01430034  0.58865523  0.68036545    -0.46800
H1154       H  0.04483123  0.89727588  0.68027038     0.07000
C1155       C  0.49672250  0.90129548  0.59917138     0.42700
C1156       C  0.07759520  0.52631346  0.68070110    -0.06300
Co1157     Co  0.03391272  0.95401224  0.64510438     0.73800
N1158       N  0.46612392  0.90715713  0.68066131    -0.46500
C1159       C  0.49171185  0.59195948  0.60009348     0.43000
N1160       N  0.07938289  0.97123132  0.61084008    -0.46500
Co1161     Co  0.45208108  0.95347731  0.64625678     0.73900
C1162       C  0.41194916  0.96756042  0.60872936    -0.06800
C1163       C  0.45743796  0.58892200  0.67969759    -0.06400
N1164       N  0.05949125  0.51729210  0.62443507    -0.25900
N1165       N  0.40229274  0.52385795  0.68136762    -0.46700
H1166       H  0.43593784  0.58302214  0.60558390     0.07000
C1167       C  0.01995517  0.91289479  0.60668685    -0.06800
Cl1168     Cl  0.49262165  0.99738528  0.64699942    -0.49800
C1169       C  0.49227989  0.89446262  0.69052298     0.42700
H1170       H  0.08456274  0.55434128  0.60835444     0.06900
N1171       N  0.47000646  0.91198805  0.60983953    -0.46500
C1172       C  0.51060484  0.58902709  0.31155256     0.42600
N1173       N  0.49077818  0.55800492  0.33361066     0.01500
C1174       C  0.07684303  0.95202854  0.39454995    -0.06400
H1175       H  0.09540762  0.93056070  0.32018898     0.07000
C1176       C  0.46892053  0.90909166  0.31623262    -0.06800
Co1177     Co  0.04115645  0.52618814  0.35544405     0.74200
N1178       N  0.06736594  0.96763958  0.33681415    -0.25900
Co1179     Co  0.03671937  0.94259907  0.35597941     0.74100
C1180       C  0.49859019  0.89236181  0.30789825     0.42700
N1181       N  0.42979712  0.98171164  0.33152137     0.01100
N1182       N  0.01037919  0.92160206  0.33303311     0.01200
N1183       N  0.07992071  0.50914345  0.39215435    -0.46800
H1184       H  0.05583069  0.57904363  0.31869795     0.06900
N1185       N  0.06768402  0.49826900  0.33461534     0.01500
N1186       N  0.00578301  0.91881315  0.37531520     0.01200
C1187       C  0.48529700  0.88955535  0.39901695     0.42800
N1188       N  0.43315667  0.51275494  0.33063221    -0.25400
C1189       C  0.02678181  0.57017919  0.39154806    -0.06300
N1190       N  0.48212363  0.57907166  0.31991262    -0.46500
N1191       N  0.01537630  0.89772354  0.38875014    -0.46700
C1192       C  0.49820154  0.58607525  0.40174892     0.42600
N1193       N  0.06324728  0.49792494  0.37706487     0.01500
N1194       N  0.42821347  0.51228042  0.37304782    -0.25400
N1195       N  0.01724242  0.55370642  0.33411836    -0.25900
N1196       N  0.42483034  0.98030385  0.37372421     0.01100
H1197       H  0.40734636  0.55051377  0.39169341     0.07000
H1198       H  0.43174142  0.90634950  0.39103796     0.07000
N1199       N  0.06105225  0.96502597  0.37919972    -0.26000
N1200       N  0.47935637  0.92578937  0.33180255    -0.25600
N1201       N  0.48447673  0.55784028  0.37633119     0.01500
C1202       C  0.10692792  0.98544792  0.31714044     0.42900
C1203       C  0.41280191  0.52539062  0.31708456    -0.06800
N1204       N  0.47290251  0.92346187  0.37452920    -0.25600
H1205       H  0.44321096  0.90668008  0.31218494     0.07000
N1206       N  0.09127586  0.50955122  0.32306298    -0.46800
H1207       H  0.40805080  0.55129456  0.31478791     0.07000
C1208       C  0.39138644  0.99609682  0.39684915     0.42700
C1209       C  0.02979421  0.57392523  0.32075185    -0.06300
Co1210     Co  0.45873571  0.53586098  0.35335041     0.73800
N1211       N  0.40743543  0.97217178  0.31878734    -0.46500
C1212       C  0.08830909  0.98037057  0.40592987     0.43000
N1213       N  0.47219396  0.57701428  0.39067082    -0.46500
Co1214     Co  0.45137018  0.95230513  0.35283453     0.73900
C1215       C  0.45816051  0.90615360  0.38855795    -0.06800
C1216       C  0.09016329  0.95615336  0.32374798    -0.06400
N1217       N  0.01488349  0.55323870  0.37649116    -0.25900
N1218       N  0.02190007  0.90095220  0.31925481    -0.46700
H1219       H  0.08067018  0.92605235  0.39665936     0.07000
C1220       C  0.40865752  0.52494560  0.38735844    -0.06800
Cl1221     Cl  0.49735610  0.98988256  0.35548451    -0.49800
C1222       C  0.39506279  0.99959881  0.31036808     0.42700
H1223       H  0.05277919  0.57415123  0.39385488     0.06900
N1224       N  0.40362636  0.96943153  0.38693962    -0.46500
N1225       N  0.99436242  0.79374530  0.49810313    -0.36500
N1226       N  0.99699768  0.73943952  0.46949705    -0.57000
N1227       N  0.99522777  0.69277987  0.50019797    -0.36500
N1228       N  0.99093255  0.74709405  0.52885172    -0.57000
C1229       C  0.98741510  0.80963956  0.48141212     0.27100
C1230       C  0.98443416  0.81377455  0.51315243     0.27100
C1231       C  0.98821386  0.67312857  0.48476464     0.27100
C1232       C  0.98592706  0.67702983  0.51652552     0.27100
C1233       C  0.00347949  0.76477833  0.45772870     0.35700
C1234       C  0.00368037  0.71179265  0.45889010     0.35700
C1235       C  0.99565325  0.77458279  0.53963629     0.35700
C1236       C  0.99722131  0.72147580  0.54065088     0.35700
C1237       C  0.97333342  0.84037456  0.48585278    -0.21800
C1238       C  0.97141149  0.84296144  0.50592630    -0.21800
C1239       C  0.97460643  0.64434056  0.49139492    -0.21800
C1240       C  0.97331759  0.64673095  0.51149223    -0.21800
C1241       C  0.01459929  0.75321181  0.43956224    -0.22800
C1242       C  0.01485439  0.71954970  0.44033582    -0.22800
C1243       C  0.00503483  0.76642288  0.55837624    -0.22800
C1244       C  0.00611462  0.73271247  0.55901719    -0.22800
C1245       C  0.99560303  0.79793380  0.46238353    -0.18200
C1246       C  0.98842716  0.80675802  0.53317883    -0.18200
C1247       C  0.99082227  0.68846242  0.53581468    -0.18200
C1248       C  0.99530103  0.68009368  0.46497930    -0.18200
H1249       H  0.96555608  0.85911612  0.47568767     0.14700
H1250       H  0.96173038  0.86398299  0.51424122     0.14700
H1251       H  0.96672814  0.62366463  0.48268429     0.14700
H1252       H  0.96430924  0.62820561  0.52129414     0.14700
H1253       H  0.02083349  0.76753440  0.42688146     0.13000
H1254       H  0.02121024  0.70275946  0.42839375     0.13000
H1255       H  0.00982738  0.78299805  0.57043327     0.13000
H1256       H  0.01160629  0.71815321  0.57174539     0.13000
H1257       H  0.00847334  0.77206567  0.49906313     0.26300
H1258       H  0.00901099  0.71401392  0.49988647     0.26300
N1259       N  0.19589156  0.99250970  0.50301511    -0.36500
N1260       N  0.24896278  0.99746353  0.53127341    -0.57000
N1261       N  0.29810739  0.99078651  0.49995518    -0.36500
N1262       N  0.24497441  0.98832337  0.47173439    -0.57000
C1263       C  0.17742790  0.99814636  0.51938828     0.27100
C1264       C  0.17561734  0.99628299  0.48755440     0.27100
C1265       C  0.31694755  0.00214387  0.51463916     0.27100
C1266       C  0.31476827  0.99608805  0.48305754     0.27100
C1267       C  0.22314756  0.99342753  0.54374524     0.35700
C1268       C  0.27685331  0.99443865  0.54192704     0.35700
C1269       C  0.21741711  0.98201337  0.46149879     0.35700
C1270       C  0.27109534  0.97901380  0.46022005     0.35700
C1271       C  0.14460204  0.00435296  0.51428806    -0.21800
C1272       C  0.14359623  0.00383421  0.49420895    -0.21800
C1273       C  0.34612931  0.01440321  0.50703183    -0.21800
C1274       C  0.34462252  0.01085187  0.48703778    -0.21800
C1275       C  0.23478810  0.98830865  0.56248633    -0.22800
C1276       C  0.26879511  0.98860833  0.56128449    -0.22800
C1277       C  0.22605317  0.96853089  0.44337342    -0.22800
C1278       C  0.26012998  0.96653661  0.44258821    -0.22800
C1279       C  0.18917307  0.99650700  0.53878216    -0.18200
C1280       C  0.18468639  0.99045851  0.46773369    -0.18200
C1281       C  0.30436444  0.98621440  0.46431308    -0.18200
C1282       C  0.30925320  0.99987182  0.53474509    -0.18200
H1283       H  0.12348226  0.00886160  0.52400286     0.14700
H1284       H  0.12158472  0.00765469  0.48553812     0.14700
H1285       H  0.36640357  0.02475798  0.51506694     0.14700
H1286       H  0.36358929  0.01781014  0.47663844     0.14700
H1287       H  0.22039591  0.98518176  0.57576148     0.13000
H1288       H  0.28561033  0.98585758  0.57338692     0.13000
H1289       H  0.20954677  0.96145806  0.43180085     0.13000
H1290       H  0.27515763  0.95795066  0.43022046     0.13000
H1291       H  0.22014650  0.98343757  0.50260367     0.26300
H1292       H  0.27698355  0.97682042  0.50148217     0.26300
C1293       C  0.50421235  0.70777798  0.26484300     0.86600
C1294       C  0.03132995  0.71559946  0.25243039    -0.53600
C1295       C  0.02908247  0.74337990  0.24151324     0.09500
C1296       C  0.49593174  0.76136613  0.24445014     0.20500
C1297       C  0.49757771  0.73971030  0.27719118    -0.54300
C1298       C  0.49342246  0.76758097  0.26654555     0.09600
C1299       C  0.47445606  0.70715850  0.25099329    -0.53900
C1300       C  0.46898983  0.73542206  0.24073905     0.10200
H1301       H  0.05403306  0.70081115  0.25296420     0.14700
H1302       H  0.49305254  0.78429349  0.23597327     0.00500
H1303       H  0.49722466  0.74134148  0.29292852     0.15000
H1304       H  0.45873386  0.68617045  0.24983641     0.14800
C1305       C  0.47133080  0.84016764  0.30027073    -0.05700
C1306       C  0.49771868  0.86113593  0.29642905     0.00300
C1307       C  0.02081079  0.85159804  0.28338842    -0.08300
C1308       C  0.01809338  0.82193175  0.27282532    -0.05700
C1309       C  0.49207428  0.80086296  0.27581470     0.00300
C1310       C  0.46748104  0.81062763  0.28987274    -0.08200
C1311       C  0.43584081  0.79166432  0.29280681     0.62200
H1312       H  0.45342346  0.84709508  0.31161609     0.12900
H1313       H  0.03810170  0.81350057  0.26313640     0.12900
C1314       C  0.05194200  0.87142550  0.28102639     0.62400
F1315       F  0.41331561  0.80831922  0.30507679    -0.22800
F1316       F  0.44257907  0.76140586  0.30092440    -0.20100
F1317       F  0.42083512  0.78748289  0.27495994    -0.19800
F1318       F  0.07091614  0.86847433  0.29761492    -0.19800
F1319       F  0.04359018  0.90417585  0.27815504    -0.20100
F1320       F  0.07113304  0.86052163  0.26517363    -0.22800
C1321       C  0.01567915  0.61897805  0.28227297    -0.05700
C1322       C  0.51253245  0.61899081  0.29991422     0.00300
C1323       C  0.51732647  0.65010762  0.30848402    -0.08300
C1324       C  0.51688266  0.67768071  0.29641457    -0.05700
C1325       C  0.51014992  0.67567704  0.27620911     0.00300
C1326       C  0.01460537  0.64580399  0.26950039    -0.08200
C1327       C  0.02756079  0.63888428  0.24879270     0.62200
H1328       H  0.02722819  0.59582957  0.27746602     0.12900
H1329       H  0.52294790  0.70076072  0.30301903     0.12900
C1330       C  0.52243358  0.65434216  0.33033990     0.62400
F1331       F  0.02128370  0.60681261  0.24327055    -0.22800
F1332       F  0.06156965  0.64277379  0.24807874    -0.20100
F1333       F  0.01247106  0.65869804  0.23514819    -0.19800
F1334       F  0.55170267  0.63854221  0.33561107    -0.19800
F1335       F  0.49618142  0.64118092  0.34056199    -0.20100
F1336       F  0.52429212  0.68709757  0.33584386    -0.22800
C1337       C  0.46760134  0.62975769  0.42088946    -0.05700
C1338       C  0.49560369  0.60836055  0.41928586     0.00300
C1339       C  0.01944481  0.60406824  0.43491141    -0.08300
C1340       C  0.01749204  0.62839500  0.44973001    -0.05700
C1341       C  0.99296597  0.65350420  0.44988427     0.00300
C1342       C  0.46369313  0.65292092  0.43629432    -0.08200
C1343       C  0.43152991  0.67311423  0.43847505     0.62200
H1344       H  0.44868826  0.62840112  0.40984589     0.12900
H1345       H  0.03582635  0.62848934  0.46116805     0.12900
C1346       C  0.04633830  0.57725712  0.43632384     0.62400
F1347       F  0.40825851  0.66381362  0.42491952    -0.22800
F1348       F  0.43731155  0.70607299  0.43594281    -0.20100
F1349       F  0.41804381  0.66866683  0.45691137    -0.19800
F1350       F  0.07341500  0.58514747  0.42485244    -0.19800
F1351       F  0.03451133  0.54711338  0.43053010    -0.20100
F1352       F  0.05718166  0.57402657  0.45532059    -0.22800
C1353       C  0.01756794  0.86176134  0.42502254    -0.05700
C1354       C  0.48421021  0.86738068  0.41641419     0.00300
C1355       C  0.45686741  0.84722628  0.42138138    -0.08300
C1356       C  0.45886766  0.82766029  0.43818978    -0.05700
C1357       C  0.48731007  0.82619490  0.44965533     0.00300
C1358       C  0.02108978  0.84017854  0.44071309    -0.08200
C1359       C  0.05376052  0.83708537  0.45145521     0.62200
H1360       H  0.03791964  0.87745278  0.42127211     0.12900
H1361       H  0.43833835  0.81243876  0.44235917     0.12900
C1362       C  0.42597269  0.84465001  0.40903577     0.62400
F1363       F  0.07843693  0.85450429  0.44244669    -0.22800
F1364       F  0.06457778  0.80458253  0.45184155    -0.20100
F1365       F  0.04957157  0.84876119  0.47040230    -0.19800
F1366       F  0.43459681  0.84139826  0.38946905    -0.19800
F1367       F  0.40561224  0.87210990  0.41217402    -0.20100
F1368       F  0.40773790  0.81745667  0.41385472    -0.22800
C1369       C  0.13297583  0.51246859  0.42077121    -0.05700
C1370       C  0.11184078  0.98198135  0.42254135     0.00300
C1371       C  0.11455904  0.95811987  0.43746423    -0.08300
C1372       C  0.13828529  0.96230062  0.45210297    -0.05700
C1373       C  0.15812860  0.98991375  0.45285817     0.00300
C1374       C  0.15568447  0.51646238  0.43599691    -0.08200
C1375       C  0.17566971  0.54754998  0.43741630     0.62200
H1376       H  0.13151953  0.53070794  0.40942709     0.12900
H1377       H  0.14210314  0.94357863  0.46301261     0.12900
C1378       C  0.09328018  0.92812706  0.43830821     0.62400
F1379       F  0.16617117  0.57030463  0.42357408    -0.22800
F1380       F  0.20912713  0.54030321  0.43460793    -0.20100
F1381       F  0.16300977  0.06315435  0.45761126    -0.19800
F1382       F  0.09585663  0.40951387  0.42511524    -0.19800
F1383       F  0.06040478  0.93652023  0.43480249    -0.20100
F1384       F  0.09445991  0.91375788  0.45652881    -0.22800
C1385       C  0.37334163  0.96798063  0.42674820    -0.05700
C1386       C  0.36870006  0.99449201  0.41400153     0.00300
C1387       C  0.34209916  0.01752123  0.41757271    -0.08300
C1388       C  0.32256866  0.01426409  0.43453244    -0.05700
C1389       C  0.32781752  0.98832966  0.44746596     0.00300
C1390       C  0.35313174  0.96435444  0.44346875    -0.08200
C1391       C  0.35472926  0.43558384  0.45433135     0.62200
H1392       H  0.39126379  0.45011262  0.42182036     0.12900
H1393       H  0.30257011  0.03191875  0.43781788     0.12900
C1394       C  0.33311492  0.04481147  0.40350233     0.62400
F1395       F  0.38208834  0.91290730  0.44897602    -0.22800
F1396       F  0.32904952  0.91866013  0.45903168    -0.20100
F1397       F  0.36568275  0.44377971  0.47274305    -0.19800
F1398       F  0.33423601  0.03311118  0.38444032    -0.19800
F1399       F  0.35613613  0.57336908  0.40471403    -0.20100
F1400       F  0.30128229  0.05744595  0.40709111    -0.22800
C1401       C  0.12690572  0.52766052  0.57552209    -0.05700
C1402       C  0.11843858  0.99664044  0.58649349     0.00300
C1403       C  0.13670767  0.96748549  0.58096705    -0.08300
C1404       C  0.15773781  0.96821633  0.56446271    -0.05700
C1405       C  0.16437715  0.99764007  0.55501885     0.00300
C1406       C  0.15026714  0.52902784  0.56020102    -0.08200
C1407       C  0.16265072  0.56203456  0.55346325     0.62200
H1408       H  0.11603079  0.55039764  0.58120522     0.12900
H1409       H  0.17057140  0.94597347  0.55927967     0.12900
C1410       C  0.13635398  0.93638048  0.59301358     0.62400
F1411       F  0.14874415  0.58786771  0.56440154    -0.22800
F1412       F  0.15271109  0.06389784  0.53507521    -0.20100
F1413       F  0.19677622  0.56276088  0.55540083    -0.19800
F1414       F  0.10622938  0.92134830  0.59129562    -0.19800
F1415       F  0.13654605  0.43689874  0.60591890    -0.20100
F1416       F  0.16099720  0.91393978  0.58702158    -0.22800
C1417       C  0.36390155  0.02758072  0.57636852    -0.05700
C1418       C  0.38339689  0.99888964  0.57926953     0.00300
C1419       C  0.38266267  0.97308842  0.56510630    -0.08300
C1420       C  0.35802755  0.97440720  0.55079196    -0.05700
C1421       C  0.33666122  0.00189065  0.54901288     0.00300
C1422       C  0.34098108  0.02983004  0.56110473    -0.08200
C1423       C  0.32144514  0.06170349  0.55792949     0.62200
H1424       H  0.36576126  0.04793038  0.58659619     0.12900
H1425       H  0.35537064  0.95378445  0.54080607     0.12900
C1426       C  0.40784160  0.94462522  0.56405244     0.62400
F1427       F  0.33263687  0.08696016  0.56964486    -0.22800
F1428       F  0.28818795  0.05761897  0.56220056    -0.20100
F1429       F  0.32260439  0.56877981  0.54012910    -0.19800
F1430       F  0.39556620  0.91804423  0.57392920    -0.19800
F1431       F  0.43468024  0.44844575  0.57185195    -0.20100
F1432       F  0.40959270  0.42919895  0.54551921    -0.22800
C1433       C  0.46384463  0.63350823  0.57943111    -0.05700
C1434       C  0.49312475  0.61541708  0.58359575     0.00300
C1435       C  0.02020402  0.62363154  0.57101918    -0.08300
C1436       C  0.01835378  0.64548782  0.55531700    -0.05700
C1437       C  0.49083492  0.65985828  0.55221480     0.00300
C1438       C  0.46209637  0.65554098  0.56387199    -0.08200
C1439       C  0.42960443  0.67386849  0.55974109     0.62200
H1440       H  0.44208341  0.63062857  0.58859562     0.12900
H1441       H  0.03956329  0.64837437  0.54563553     0.12900
C1442       C  0.05205341  0.60343934  0.57372679     0.62400
F1443       F  0.40450886  0.66557453  0.57266089    -0.22800
F1444       F  0.41943292  0.66625996  0.54106498    -0.20100
F1445       F  0.43377297  0.70737396  0.56133544    -0.19800
F1446       F  0.04508733  0.57035083  0.57374175    -0.19800
F1447       F  0.06660830  0.61222907  0.59112450    -0.20100
F1448       F  0.07504082  0.60843460  0.55889393    -0.22800
C1449       C  0.47020516  0.85360327  0.58366317    -0.05700
C1450       C  0.49459564  0.87755464  0.58246639     0.00300
C1451       C  0.00893300  0.88339502  0.56232734    -0.08300
C1452       C  0.00851795  0.85862894  0.54780615    -0.05700
C1453       C  0.48745801  0.82993519  0.55215184     0.00300
C1454       C  0.46556369  0.83034865  0.56863880    -0.08200
C1455       C  0.43671316  0.80746383  0.57126275     0.62200
H1456       H  0.45422868  0.85309953  0.59653952     0.12900
H1457       H  0.02678200  0.85862870  0.53601124     0.12900
C1458       C  0.03191223  0.91176287  0.55911412     0.62400
F1459       F  0.40793130  0.82598883  0.57498172    -0.22800
F1460       F  0.44269466  0.78743411  0.58706938    -0.20100
F1461       F  0.43121922  0.78794625  0.55505240    -0.19800
F1462       F  0.06346756  0.90276027  0.56498093    -0.19800
F1463       F  0.52403278  0.93654601  0.56674437    -0.20100
F1464       F  0.03324027  0.91944191  0.53948374    -0.22800
C1465       C  0.11759112  0.75927709  0.22384915    -0.05700
C1466       C  0.11354161  0.75863197  0.20360971     0.00300
C1467       C  0.08105335  0.75758968  0.19595542    -0.08300
C1468       C  0.05366323  0.75533585  0.20899233    -0.05700
C1469       C  0.05786165  0.75401048  0.22930132     0.00300
C1470       C  0.09038674  0.75757660  0.23691311    -0.08200
C1471       C  0.09837807  0.75971667  0.25850434     0.62200
H1472       H  0.14251115  0.76075399  0.22957412     0.12900
H1473       H  0.02891447  0.75263669  0.20333157     0.12900
C1474       C  0.07556495  0.75788142  0.17409458     0.62400
F1475       F  0.11754662  0.73249505  0.26352463    -0.22800
F1476       F  0.07061306  0.76146929  0.27054242    -0.20100
F1477       F  0.11635765  0.78765580  0.26198272    -0.19800
F1478       F  0.09174672  0.73100000  0.16538651    -0.19800
F1479       F  0.08795798  0.78634401  0.16634151    -0.20100
F1480       F  0.04217407  0.75663281  0.16962425    -0.22800
C1481       C  0.38005474  0.73724209  0.22009676    -0.05700
C1482       C  0.38472416  0.75502059  0.20298989     0.00300
C1483       C  0.41653282  0.76740695  0.19870396    -0.08300
C1484       C  0.44304027  0.75989302  0.21130879    -0.05700
C1485       C  0.43868187  0.74185623  0.22851054     0.00300
C1486       C  0.40585211  0.73159848  0.23346633    -0.08200
C1487       C  0.39641350  0.71453073  0.25234747     0.62200
H1488       H  0.35555200  0.72789221  0.22309178     0.12900
H1489       H  0.46770943  0.76789537  0.20759825     0.12900
C1490       C  0.42279967  0.78790854  0.18072815     0.62400
F1491       F  0.36358081  0.72171475  0.25750727    -0.22800
F1492       F  0.41537797  0.72449235  0.26785151    -0.20100
F1493       F  0.39993305  0.68088256  0.24973620    -0.19800
F1494       F  0.40532871  0.81750553  0.18247977    -0.19800
F1495       F  0.41275799  0.77130892  0.16417872    -0.20100
F1496       F  0.45610981  0.79478188  0.17835545    -0.22800
C1497       C  0.27769857  0.58546561  0.06672685    -0.05700
C1498       C  0.25122332  0.58649920  0.05372063     0.00300
C1499       C  0.22486039  0.60970100  0.05692827    -0.08300
C1500       C  0.22671844  0.63230656  0.07269842    -0.05700
C1501       C  0.25373363  0.63195517  0.08555054     0.00300
C1502       C  0.27905857  0.60697714  0.08296259    -0.08200
C1503       C  0.30710582  0.60135077  0.09725818     0.62200
H1504       H  0.29729514  0.56706155  0.06419062     0.12900
H1505       H  0.20717064  0.65083931  0.07492436     0.12900
C1506       C  0.19482718  0.61024148  0.04379225     0.62400
F1507       F  0.31925079  0.56920746  0.09617928    -0.22800
F1508       F  0.29626650  0.60691227  0.11629833    -0.20100
F1509       F  0.33297319  0.62171430  0.09279867    -0.19800
F1510       F  0.18150122  0.57930932  0.04274560    -0.19800
F1511       F  0.20400123  0.61984724  0.02524408    -0.20100
F1512       F  0.17027223  0.63182797  0.05075437    -0.22800
C1513       C  0.27545692  0.92247710  0.06636916    -0.05700
C1514       C  0.24993247  0.91996177  0.05272218     0.00300
C1515       C  0.22393633  0.89789971  0.05615746    -0.08300
C1516       C  0.22520230  0.87804287  0.07283727    -0.05700
C1517       C  0.25037369  0.88094877  0.08671410     0.00300
C1518       C  0.27566357  0.90414636  0.08366954    -0.08200
C1519       C  0.30165186  0.91117244  0.09897483     0.62200
H1520       H  0.29461302  0.94011527  0.06366184     0.12900
H1521       H  0.20580652  0.86066004  0.07545518     0.12900
C1522       C  0.19372962  0.89710848  0.04316225     0.62400
F1523       F  0.31971657  0.93861432  0.09446080    -0.22800
F1524       F  0.32373206  0.88472369  0.10025151    -0.20100
F1525       F  0.28634210  0.91704462  0.11695725    -0.19800
F1526       F  0.20315638  0.89036784  0.02403459    -0.19800
F1527       F  0.17721251  0.92732026  0.04416552    -0.20100
F1528       F  0.17175418  0.87333495  0.04888458    -0.22800
C1529       C  0.23411116  0.61018393  0.94894561    -0.05700
C1530       C  0.26130290  0.58874040  0.95154242     0.00300
C1531       C  0.28941292  0.59053569  0.93904366    -0.08300
C1532       C  0.28832887  0.61254268  0.92332123    -0.05700
C1533       C  0.26038438  0.63324806  0.92003600     0.00300
C1534       C  0.23322525  0.63283499  0.93358081    -0.08200
C1535       C  0.20347245  0.65626676  0.93229651     0.62200
H1536       H  0.21310549  0.60837697  0.95890512     0.12900
H1537       H  0.30930278  0.61324797  0.91330658     0.12900
C1538       C  0.32054699  0.56969184  0.94264925     0.62400
F1539       F  0.18336728  0.65485129  0.94878546    -0.22800
F1540       F  0.18462402  0.64808677  0.91632466    -0.20100
F1541       F  0.21397463  0.68821798  0.93074561    -0.19800
F1542       F  0.31396862  0.53670285  0.94055686    -0.19800
F1543       F  0.33146233  0.57557650  0.96140310    -0.20100
F1544       F  0.34601905  0.57686090  0.92974205    -0.22800
C1545       C  0.29128922  0.90698653  0.93991305    -0.05700
C1546       C  0.26140905  0.91371912  0.95010124     0.00300
C1547       C  0.23224553  0.89803730  0.94428691    -0.08300
C1548       C  0.23368803  0.87695033  0.92781966    -0.05700
C1549       C  0.26332608  0.87077293  0.91695975     0.00300
C1550       C  0.29306214  0.88535927  0.92360238    -0.08200
C1551       C  0.32668960  0.87822164  0.91392303     0.62200
H1552       H  0.31324124  0.91932799  0.94479286     0.12900
H1553       H  0.21123878  0.86523309  0.92337153     0.12900
C1554       C  0.19963650  0.90407190  0.95537749     0.62400
F1555       F  0.35178545  0.89544357  0.92269558    -0.22800
F1556       F  0.32600608  0.88703106  0.89449222    -0.20100
F1557       F  0.33460315  0.84512148  0.91545854    -0.19800
F1558       F  0.17395742  0.88674881  0.94731147    -0.19800
F1559       F  0.19079986  0.93712742  0.95515762    -0.20100
F1560       F  0.20314760  0.89430999  0.97451859    -0.22800
C1561       C  0.47702447  0.67187761  0.72760759    -0.05700
C1562       C  0.50289862  0.69254550  0.72221718     0.00300
C1563       C  0.02136951  0.68503879  0.70495128    -0.08300
C1564       C  0.01423156  0.65646864  0.69423870    -0.05700
C1565       C  0.48919832  0.63530876  0.69974992     0.00300
C1566       C  0.47021288  0.64294524  0.71692490    -0.08200
C1567       C  0.44405763  0.62004870  0.72459167     0.62200
H1568       H  0.46276731  0.67808574  0.74071936     0.12900
H1569       H  0.02920615  0.64986810  0.68145079     0.12900
C1570       C  0.05037524  0.70549787  0.69848544     0.62400
F1571       F  0.43225783  0.62973472  0.74292631    -0.22800
F1572       F  0.45740150  0.58850976  0.72603111    -0.20100
F1573       F  0.41741025  0.61994614  0.71213341    -0.19800
F1574       F  0.07642010  0.70040966  0.71100617    -0.19800
F1575       F  0.04132497  0.73846721  0.69850612    -0.20100
F1576       F  0.06152257  0.69690708  0.67983983    -0.22800
C1577       C  0.48978774  0.80615693  0.70878677    -0.05700
C1578       C  0.49646828  0.81062432  0.72872436     0.00300
C1579       C  0.99082759  0.84154763  0.73265465    -0.08300
C1580       C  0.98890836  0.86706600  0.71904188    -0.05700
C1581       C  0.49141399  0.86522909  0.70332181     0.00300
C1582       C  0.48704914  0.83298306  0.69593603    -0.08200
C1583       C  0.48072296  0.82697277  0.67442390     0.62200
H1584       H  0.48801278  0.78131922  0.70315521     0.12900
H1585       H  0.98873759  0.89243385  0.72407586     0.12900
C1586       C  0.99029595  0.85051731  0.75423580     0.62400
F1587       F  0.47866274  0.79381850  0.67000045    -0.22800
F1588       F  0.01178516  0.83316602  0.66046960    -0.20100
F1589       F  0.45107383  0.84230108  0.66935326    -0.19800
F1590       F  0.02238468  0.85468070  0.76053989    -0.19800
F1591       F  0.49094310  0.82616661  0.76976025    -0.20100
F1592       F  0.97228426  0.87955845  0.75758349    -0.22800
C1593       C  0.06798450  0.76522759  0.79247963    -0.05700
C1594       C  0.07090125  0.75277102  0.77314647     0.00300
C1595       C  0.10371357  0.74445841  0.76602283    -0.08300
C1596       C  0.12985207  0.74169176  0.77946952    -0.05700
C1597       C  0.12569672  0.75129498  0.79905375     0.00300
C1598       C  0.09457231  0.76436705  0.80558253    -0.08200
C1599       C  0.08911765  0.77663708  0.82646559     0.62200
H1600       H  0.04469309  0.77640068  0.79739663     0.12900
H1601       H  0.15438896  0.73350820  0.77438879     0.12900
C1602       C  0.11360477  0.74021012  0.74463363     0.62400
F1603       F  0.05637308  0.78637444  0.83013304    -0.22800
F1604       F  0.10868236  0.80338250  0.83002197    -0.20100
F1605       F  0.09730713  0.75183922  0.83929815    -0.19800
F1606       F  0.09041367  0.75352380  0.73216760    -0.19800
F1607       F  0.11881606  0.70716343  0.74040178    -0.20100
F1608       F  0.14295147  0.75618741  0.74098937    -0.22800
C1609       C  0.41716785  0.76034478  0.76517502    -0.05700
C1610       C  0.44282356  0.73824900  0.77040824     0.00300
C1611       C  0.43598475  0.71376127  0.78446998    -0.08300
C1612       C  0.40550866  0.71540720  0.79464738    -0.05700
C1613       C  0.38074340  0.73894960  0.79042123     0.00300
C1614       C  0.38566525  0.76022929  0.77443354    -0.08200
C1615       C  0.35861393  0.78294208  0.76663357     0.62200
H1616       H  0.42195210  0.77838621  0.75404039     0.12900
H1617       H  0.40143078  0.69840940  0.80645198     0.12900
C1618       C  0.45979422  0.68581225  0.78983930     0.62400
F1619       F  0.35928930  0.78187476  0.74641578    -0.22800
F1620       F  0.36399201  0.81480326  0.77280470    -0.20100
F1621       F  0.32724261  0.77393013  0.77262245    -0.19800
F1622       F  0.47307780  0.69243671  0.80794364    -0.19800
F1623       F  0.48529348  0.68064051  0.77636616    -0.20100
F1624       F  0.44266745  0.65682999  0.79091696    -0.22800
C1625       C  0.30755606  0.52011414  0.71610270    -0.05700
C1626       C  0.29764337  0.99404734  0.72462376     0.00300
C1627       C  0.32311803  0.96948083  0.72559857    -0.08300
C1628       C  0.35243217  0.97321861  0.71454527    -0.05700
C1629       C  0.35640413  0.99945443  0.70168641     0.00300
C1630       C  0.33666816  0.52471654  0.70515076    -0.08200
C1631       C  0.33928805  0.55563570  0.69306601     0.62200
H1632       H  0.28677628  0.53719113  0.71461577     0.12900
H1633       H  0.37234940  0.95493063  0.71549452     0.12900
C1634       C  0.31827822  0.93789058  0.73657805     0.62400
F1635       F  0.30235204  0.06989431  0.68543274    -0.22800
F1636       F  0.33678850  0.03852183  0.66679522    -0.20100
F1637       F  0.36700284  0.57265024  0.69857707    -0.19800
F1638       F  0.28988313  0.92338135  0.72995968    -0.19800
F1639       F  0.32315434  0.44908709  0.76226571    -0.20100
F1640       F  0.35543297  0.41951704  0.74150771    -0.22800
C1641       C  0.14521351  0.97879647  0.73441530    -0.05700
C1642       C  0.17212128  0.99861075  0.72876743     0.00300
C1643       C  0.16750558  0.01930522  0.71221643    -0.11900
C1644       C  0.13966877  0.01481110  0.70051052    -0.05700
C1645       C  0.11431457  0.99359845  0.70559802     0.00300
C1646       C  0.11638020  0.97603904  0.72313600    -0.08200
C1647       C  0.08757140  0.95574574  0.73027039     0.62200
H1648       H  0.14581262  0.96621667  0.74812452     0.12900
H1649       H  0.13723055  0.02905788  0.68730163     0.12900
C1650       C  0.20178507  0.54273225  0.70243842     0.62400
F1651       F  0.09446596  0.94033341  0.74771722    -0.22800
F1652       F  0.08059699  0.93173288  0.71658439    -0.20100
F1653       F  0.06442534  0.47873817  0.72659924    -0.19800
F1654       F  0.17058349  0.07478768  0.70234231    -0.19800
F1655       F  0.21902625  0.52988854  0.68634940    -0.20100
F1656       F  0.22426031  0.55168257  0.71633612    -0.22800
C1657       C  0.22332233  0.56134136  0.79070440    -0.05700
C1658       C  0.24854094  0.55481575  0.77673471     0.00300
C1659       C  0.27605236  0.57590018  0.77585435    -0.08300
C1660       C  0.27707488  0.60269167  0.78903945    -0.05700
C1661       C  0.25131526  0.60979769  0.80259411     0.00300
C1662       C  0.22403136  0.58836427  0.80368818    -0.08200
C1663       C  0.19562431  0.59345472  0.81837024     0.62200
H1664       H  0.20228536  0.54532545  0.79096998     0.12900
H1665       H  0.29761329  0.61925954  0.78828827     0.12900
C1666       C  0.30287825  0.57215676  0.76019514     0.62400
F1667       F  0.17424860  0.56735936  0.81831659    -0.22800
F1668       F  0.17726326  0.62145864  0.81383836    -0.20100
F1669       F  0.20805285  0.59637410  0.83702695    -0.19800
F1670       F  0.28829701  0.57414160  0.74215095    -0.19800
F1671       F  0.31975515  0.54240952  0.76193303    -0.20100
F1672       F  0.32601409  0.59667291  0.76134428    -0.22800
C1673       C  0.24930402  0.90651938  0.76567297    -0.05700
C1674       C  0.24832307  0.93723038  0.77533418     0.00300
C1675       C  0.25103000  0.93849732  0.79593161    -0.08300
C1676       C  0.25513033  0.90882991  0.80611043    -0.05700
C1677       C  0.25564856  0.87838549  0.79630676     0.00300
C1678       C  0.25342875  0.87702963  0.77581830    -0.08200
C1679       C  0.25473712  0.84436760  0.76490108     0.62200
H1680       H  0.24510758  0.90568356  0.75012473     0.12900
H1681       H  0.25638243  0.90901323  0.82190276     0.12900
C1682       C  0.24628847  0.97052315  0.80721216     0.62400
F1683       F  0.25367141  0.84835008  0.74486977    -0.22800
F1684       F  0.22807318  0.82578056  0.77054272    -0.20100
F1685       F  0.28396542  0.82756756  0.76919630    -0.19800
F1686       F  0.21503132  0.98361412  0.80350651    -0.19800
F1687       F  0.27017203  0.99236816  0.80161094    -0.20100
F1688       F  0.24870318  0.96618461  0.82716384    -0.22800
C1689       C  0.08838677  0.79274908  0.06550663    -0.05700
C1690       C  0.08816716  0.76556987  0.05283222     0.00300
C1691       C  0.10912757  0.73797809  0.05620651    -0.08300
C1692       C  0.13010352  0.73859889  0.07239168    -0.05700
C1693       C  0.12983532  0.76535367  0.08558890     0.00300
C1694       C  0.10860950  0.79318014  0.08206097    -0.08200
C1695       C  0.10624778  0.82293611  0.09569514     0.62200
H1696       H  0.07174363  0.81335711  0.06249008     0.12900
H1697       H  0.14653316  0.71770684  0.07499286     0.12900
C1698       C  0.10808494  0.70745678  0.04329416     0.62400
F1699       F  0.08139668  0.84508155  0.09032318    -0.22800
F1700       F  0.13593088  0.83919968  0.09524556    -0.20100
F1701       F  0.09913259  0.81318116  0.11453990    -0.19800
F1702       F  0.11614168  0.71502449  0.02422718    -0.19800
F1703       F  0.07654691  0.69482220  0.04396968    -0.20100
F1704       F  0.13026274  0.68331192  0.04931117    -0.22800
C1705       C  0.39120113  0.73780814  0.05125526    -0.05700
C1706       C  0.40826084  0.76669807  0.04786061     0.00300
C1707       C  0.40163816  0.79485630  0.05962744    -0.08300
C1708       C  0.37966125  0.79231992  0.07556356    -0.05700
C1709       C  0.36391023  0.76273735  0.07996150     0.00300
C1710       C  0.36876537  0.73523912  0.06706317    -0.08200
C1711       C  0.35075451  0.70327611  0.06969112     0.62200
H1712       H  0.39676957  0.71678335  0.04179740     0.12900
H1713       H  0.37583730  0.81343362  0.08510810     0.12900
C1714       C  0.41826937  0.82721252  0.05555718     0.62400
F1715       F  0.35675914  0.68160222  0.05420102    -0.22800
F1716       F  0.31683670  0.70957898  0.07086790    -0.20100
F1717       F  0.36145623  0.68798965  0.08645081    -0.19800
F1718       F  0.45200605  0.82418006  0.05883665    -0.19800
F1719       F  0.40547915  0.85248653  0.06738208    -0.20100
F1720       F  0.41331461  0.83591878  0.03634339    -0.22800
C1721       C  0.09906539  0.79258421  0.94039711    -0.05700
C1722       C  0.09436833  0.76487188  0.95181246     0.00300
C1723       C  0.11184955  0.73518736  0.94737753    -0.08300
C1724       C  0.13466896  0.73451193  0.93170422    -0.05700
C1725       C  0.13915161  0.76200285  0.91977314     0.00300
C1726       C  0.12063279  0.79165875  0.92407653    -0.08200
C1727       C  0.12199809  0.82184179  0.91128527     0.62200
H1728       H  0.08446835  0.81462361  0.94401307     0.12900
H1729       H  0.14876912  0.71207612  0.92855677     0.12900
C1730       C  0.10567592  0.70425150  0.95894348     0.62400
F1731       F  0.09967068  0.84640054  0.91748105    -0.22800
F1732       F  0.11414075  0.81349907  0.89227960    -0.20100
F1733       F  0.15336771  0.83467176  0.91184215    -0.19800
F1734       F  0.07230476  0.69709284  0.95888913    -0.19800
F1735       F  0.11561852  0.70879680  0.97800479    -0.20100
F1736       F  0.12283926  0.67725867  0.95110963    -0.22800
C1737       C  0.40009337  0.78191032  0.91663728    -0.05700
C1738       C  0.38126201  0.75359640  0.91390451     0.00300
C1739       C  0.38258512  0.72850655  0.92813436    -0.08300
C1740       C  0.40437118  0.73187511  0.94386666    -0.05700
C1741       C  0.42370645  0.75971586  0.94612808     0.00300
C1742       C  0.42087795  0.78572889  0.93274006    -0.08200
C1743       C  0.43928011  0.81754706  0.93561066     0.62200
H1744       H  0.39885784  0.80113153  0.90590605     0.12900
H1745       H  0.40671471  0.71263939  0.95458339     0.12900
C1746       C  0.36084488  0.69864723  0.92715382     0.62400
F1747       F  0.42940309  0.84123375  0.92240459    -0.22800
F1748       F  0.47308245  0.81191699  0.93314639    -0.20100
F1749       F  0.43298258  0.83005461  0.95420987    -0.19800
F1750       F  0.37097880  0.67865942  0.91159882    -0.19800
F1751       F  0.32794502  0.70851045  0.92498516    -0.20100
F1752       F  0.36276569  0.68021594  0.94396981    -0.22800
C1753       C  0.30629911  0.01842906  0.29413764    -0.05700
C1754       C  0.30566538  0.00023457  0.27664344     0.00300
C1755       C  0.33487450  0.47397669  0.26956294    -0.08300
C1756       C  0.36374033  0.47560144  0.28091293    -0.05700
C1757       C  0.36346672  0.00031993  0.29955511     0.00300
C1758       C  0.33455227  0.01832466  0.30602247    -0.08200
C1759       C  0.33285599  0.03680574  0.32544025     0.62200
H1760       H  0.28471604  0.03370744  0.29808846     0.12900
H1761       H  0.38579601  0.46122563  0.27671117     0.12900
C1762       C  0.33391603  0.45082505  0.25209302     0.62400
F1763       F  0.30043583  0.04562279  0.33066442    -0.22800
F1764       F  0.34893384  0.55930292  0.32354890    -0.20100
F1765       F  0.34558621  0.01725298  0.34008114    -0.19800
F1766       F  0.33022674  0.46863706  0.23523864    -0.19800
F1767       F  0.30714319  0.93572947  0.25531076    -0.20100
F1768       F  0.36272094  0.43161345  0.25020860    -0.22800
C1769       C  0.19501133  0.48323299  0.29391978    -0.05700
C1770       C  0.18800601  0.00285879  0.27787918     0.00300
C1771       C  0.15438726  0.00914076  0.27225625    -0.08300
C1772       C  0.12887284  0.00316331  0.28575763    -0.05700
C1773       C  0.13518145  0.98814148  0.30354527     0.00300
C1774       C  0.16839887  0.47629525  0.30674411    -0.08200
C1775       C  0.17522312  0.46072432  0.32634928     0.62200
H1776       H  0.22032044  0.47737672  0.29808088     0.12900
H1777       H  0.10336223  0.00964905  0.28218819     0.12900
C1778       C  0.14333405  0.02098841  0.25227915     0.62400
F1779       F  0.20884048  0.45458475  0.32903961    -0.22800
F1780       F  0.16079820  0.93221982  0.32790173    -0.20100
F1781       F  0.16371287  0.48151058  0.34124237    -0.19800
F1782       F  0.11548058  0.00427062  0.24658219    -0.19800
F1783       F  0.16920635  0.51300568  0.23582114    -0.20100
F1784       F  0.13512214  0.05416012  0.25344463    -0.22800
C1785       C  0.22812461  0.59493267  0.22859660    -0.05700
C1786       C  0.25203126  0.56893537  0.22604313     0.00300
C1787       C  0.27745224  0.57322470  0.21134974    -0.08300
C1788       C  0.27733890  0.60241314  0.20045923    -0.05700
C1789       C  0.25308391  0.62738920  0.20303991     0.00300
C1790       C  0.22836110  0.62393963  0.21763415    -0.08200
C1791       C  0.20255370  0.65115112  0.22205784     0.62200
H1792       H  0.20818332  0.59306609  0.23893144     0.12900
H1793       H  0.29629796  0.60531918  0.18924654     0.12900
C1794       C  0.30555669  0.54894540  0.20553303     0.62400
F1795       F  0.18409919  0.64513769  0.23879245    -0.22800
F1796       F  0.18071720  0.65389986  0.20674389    -0.20100
F1797       F  0.21817330  0.68068355  0.22483095    -0.19800
F1798       F  0.30306216  0.54124571  0.18587282    -0.19800
F1799       F  0.30621670  0.51989778  0.21542662    -0.20100
F1800       F  0.33569081  0.56365500  0.20851444    -0.22800
C1801       C  0.26915349  0.94621796  0.21328278    -0.05700
C1802       C  0.24499333  0.94974246  0.22819963     0.00300
C1803       C  0.22309816  0.92351849  0.23166311    -0.08300
C1804       C  0.22581838  0.89541547  0.21950768    -0.05700
C1805       C  0.24995469  0.89212631  0.20461227     0.00300
C1806       C  0.27251759  0.91782705  0.20154836    -0.08200
C1807       C  0.29951509  0.91625640  0.18576157     0.62200
H1808       H  0.28554922  0.96633685  0.21077068     0.12900
H1809       H  0.20920171  0.87526706  0.22172410     0.12900
C1810       C  0.19647353  0.92466670  0.24758480     0.62400
F1811       F  0.31675496  0.94520625  0.18470480    -0.22800
F1812       F  0.28553862  0.91074091  0.16771662    -0.20100
F1813       F  0.32230070  0.89131315  0.18975610    -0.19800
F1814       F  0.17786349  0.95338344  0.24647181    -0.19800
F1815       F  0.21093697  0.92244134  0.26568125    -0.20100
F1816       F  0.17482554  0.89893772  0.24586820    -0.22800
C1817       C  0.74817820  0.04202174  0.24095513     0.86600
C1818       C  0.77846077  0.03579703  0.25371464    -0.53600
C1819       C  0.77789548  0.50587791  0.26070990     0.09500
C1820       C  0.74633196  0.48619948  0.25737728     0.20500
C1821       C  0.74521813  0.01116515  0.22778128    -0.54300
C1822       C  0.74395588  0.48179623  0.23514100     0.09600
C1823       C  0.71903959  0.03920165  0.25583715    -0.53900
C1824       C  0.71687535  0.50991331  0.26266511     0.10200
H1825       H  0.79819895  0.05331056  0.25526337     0.14700
H1826       H  0.74708945  0.46302020  0.26550645     0.00500
H1827       H  0.74227794  0.51246059  0.20965079     0.15000
H1828       H  0.70050855  0.05795946  0.25937521     0.14800
N1829       N  0.95268889  0.24701469  0.00087436    -0.36500
N1830       N  0.50457742  0.25428311  0.96931720    -0.57000
N1831       N  0.55505298  0.25068610  0.99939125    -0.36500
N1832       N  0.50320270  0.25102034  0.02922817    -0.57000
C1833       C  0.93461653  0.25176876  0.98469046     0.27100
C1834       C  0.93328503  0.25625560  0.01627829     0.27100
C1835       C  0.57439448  0.25718580  0.98368256     0.27100
C1836       C  0.57378724  0.25466589  0.01544831     0.27100
C1837       C  0.97886079  0.23609568  0.96058580     0.35700
C1838       C  0.53188775  0.25109714  0.95770729     0.35700
C1839       C  0.97558361  0.24874319  0.04177795     0.35700
C1840       C  0.52970691  0.24684205  0.04089701     0.35700
C1841       C  0.90299011  0.26351921  0.98986662    -0.21800
C1842       C  0.90212379  0.26627926  0.00991977    -0.21800
C1843       C  0.60603419  0.26475773  0.98979172    -0.21800
C1844       C  0.60568454  0.26305859  0.00984134    -0.21800
C1845       C  0.98983896  0.22378331  0.94258770    -0.22800
C1846       C  0.52281729  0.24541157  0.93851653    -0.22800
C1847       C  0.98518120  0.24082287  0.06053391    -0.22800
C1848       C  0.51921691  0.24120476  0.05991392    -0.22800
C1849       C  0.94558296  0.24396813  0.96554883    -0.18200
C1850       C  0.94256316  0.25353825  0.03589965    -0.18200
C1851       C  0.56327359  0.24966879  0.03496296    -0.18200
C1852       C  0.56495671  0.25429331  0.96393901    -0.18200
H1853       H  0.88258754  0.26914236  0.98022755     0.14700
H1854       H  0.88095176  0.27444323  0.01880498     0.14700
H1855       H  0.62731575  0.27044001  0.98072739     0.14700
H1856       H  0.62663120  0.26732562  0.01919268     0.14700
H1857       H  0.97486144  0.21591594  0.93047703     0.13000
H1858       H  0.53898121  0.24220757  0.92582848     0.13000
H1859       H  0.96935438  0.23534769  0.07291615     0.13000
H1860       H  0.53444141  0.23758345  0.07264896     0.13000
H1861       H  0.97556052  0.23465378  0.00154986     0.26300
H1862       H  0.53176410  0.24053678  0.99903104     0.26300
C1863       C  0.70688245  0.49950074  0.74219521     0.86600
C1864       C  0.71344565  0.02944137  0.75372538    -0.53600
C1865       C  0.74299468  0.02904831  0.76319125     0.09500
C1866       C  0.76394312  0.49806405  0.76031049     0.20500
C1867       C  0.73756155  0.49644434  0.72858827    -0.54300
C1868       C  0.76736225  0.49614827  0.73778614     0.09600
C1869       C  0.71187853  0.46991032  0.75593062    -0.53900
C1870       C  0.74144187  0.46920158  0.76559485     0.10200
H1871       H  0.69577459  0.05006832  0.75485047     0.14700
H1872       H  0.78811571  0.49753519  0.76774374     0.00500
H1873       H  0.73590262  0.49512223  0.71278748     0.15000
H1874       H  0.69503983  0.44977238  0.75733345     0.14800
C1875       C  0.53966953  0.25098541  0.76153902     0.86600
C1876       C  0.53282440  0.28248088  0.75024887    -0.53600
C1877       C  0.00616446  0.28226393  0.73630453     0.09500
C1878       C  0.98667342  0.25028989  0.73892621     0.20500
C1879       C  0.50735825  0.24610602  0.77367226    -0.54300
C1880       C  0.98219231  0.24635765  0.76116012     0.09600
C1881       C  0.53857722  0.22276625  0.74627634    -0.53900
C1882       C  0.01125646  0.22212515  0.73320172     0.10200
H1883       H  0.54937841  0.30310671  0.75059321     0.14700
H1884       H  0.96309930  0.24969723  0.73071336     0.00500
H1885       H  0.01229909  0.24534973  0.78673069     0.15000
H1886       H  0.55728736  0.20317346  0.74514115     0.14800
N1887       N  0.75460401  0.45235905  0.00067287    -0.36500
N1888       N  0.74251368  0.00715110  0.03063406    -0.57000
N1889       N  0.75127244  0.05664467  0.00086903    -0.36500
N1890       N  0.74938884  0.00605913  0.97094729    -0.57000
C1891       C  0.75972985  0.43440651  0.01687525     0.27100
C1892       C  0.76529603  0.43380826  0.98517073     0.27100
C1893       C  0.75964647  0.07369849  0.01705278     0.27100
C1894       C  0.76270175  0.07321488  0.98525492     0.27100
C1895       C  0.74169550  0.47683583  0.04160246     0.35700
C1896       C  0.74009412  0.03445288  0.04204909     0.35700
C1897       C  0.75868633  0.47593524  0.95971782     0.35700
C1898       C  0.74764643  0.03294363  0.95957565     0.35700
C1899       C  0.77400922  0.40408604  0.01161659    -0.21800
C1900       C  0.77735640  0.40365253  0.99154586    -0.21800
C1901       C  0.77667686  0.10143921  0.01168319    -0.21800
C1902       C  0.77848233  0.10119702  0.99156698    -0.21800
C1903       C  0.72904712  0.48672534  0.05975517    -0.22800
C1904       C  0.72996294  0.02632429  0.06078852    -0.22800
C1905       C  0.75280567  0.48630575  0.94085671    -0.22800
C1906       C  0.73854037  0.02413826  0.94081498    -0.22800
C1907       C  0.74950094  0.44389675  0.03602731    -0.18200
C1908       C  0.76191892  0.44275024  0.96542012    -0.18200
C1909       C  0.75727231  0.06468286  0.96549745    -0.18200
C1910       C  0.75015193  0.06603133  0.03638739    -0.18200
H1911       H  0.78049203  0.38404350  0.02120020     0.14700
H1912       H  0.78697800  0.38330522  0.98263139     0.14700
H1913       H  0.78619385  0.12023095  0.02125789     0.14700
H1914       H  0.78978964  0.11966660  0.98260142     0.14700
H1915       H  0.72139640  0.47121453  0.07163335     0.13000
H1916       H  0.72643717  0.04259706  0.07331367     0.13000
H1917       H  0.74856065  0.47118151  0.92806556     0.13000
H1918       H  0.73572542  0.04003036  0.92836251     0.13000
H1919       H  0.74079725  0.47428022  0.00001911     0.26300
H1920       H  0.73514244  0.03713201  0.00044108     0.26300
C1921       C  0.85831753  0.24679913  0.89953552     0.42600
N1922       N  0.83042903  0.23351064  0.87428767     0.01500
C1923       C  0.73256420  0.33836630  0.81922148    -0.06400
H1924       H  0.70787282  0.34423000  0.89397622     0.07000
C1925       C  0.67337659  0.22501614  0.89004621    -0.06800
Co1926     Co  0.80386930  0.29256894  0.85351828     0.74200
N1927       N  0.74449576  0.31889159  0.87572564    -0.25900
Co1928     Co  0.71774526  0.29356272  0.85458456     0.74100
C1929       C  0.66016304  0.25486963  0.89979816     0.42700
N1930       N  0.74649250  0.18351769  0.87591144     0.01100
N1931       N  0.69261374  0.26792636  0.87609850     0.01200
N1932       N  0.78872250  0.33882317  0.81957494    -0.46800
H1933       H  0.84998382  0.30208006  0.89354275     0.06900
N1934       N  0.77727566  0.31859683  0.87538943     0.01500
N1935       N  0.69178937  0.26706755  0.83351266     0.01200
C1936       C  0.65738701  0.25353199  0.81127708     0.42800
N1937       N  0.77926839  0.18276399  0.87504792    -0.25400
C1938       C  0.84804355  0.27555267  0.81674755    -0.06300
N1939       N  0.84737251  0.22111919  0.88902789    -0.46500
N1940       N  0.67058290  0.27937784  0.82069012    -0.46700
C1941       C  0.86072066  0.24550916  0.80699838     0.42600
N1942       N  0.77675744  0.31860382  0.83281012     0.01500
N1943       N  0.77860028  0.18105110  0.83272155    -0.25400
N1944       N  0.82972160  0.26588330  0.87434697    -0.25900
N1945       N  0.74580728  0.18149698  0.83332597     0.01100
H1946       H  0.81481588  0.14905506  0.81806972     0.07000
H1947       H  0.66566432  0.19844803  0.81718688     0.07000
N1948       N  0.74396747  0.31824458  0.83305518    -0.26000
N1949       N  0.69318685  0.23556871  0.87578308    -0.25600
N1950       N  0.82990758  0.23285235  0.83154076     0.01500
C1951       C  0.76373359  0.35033415  0.89979981     0.42900
C1952       C  0.79087170  0.16471716  0.88979440    -0.06800
N1953       N  0.69282967  0.23458217  0.83335474    -0.25600
H1954       H  0.66767075  0.19958428  0.89238594     0.07000
N1955       N  0.78971852  0.33699860  0.88948189    -0.46800
H1956       H  0.81677083  0.15915483  0.89247669     0.07000
C1957       C  0.75895601  0.14265084  0.81305468     0.42700
C1958       C  0.84681249  0.27657592  0.88965993    -0.06300
Co1959     Co  0.80517107  0.20709506  0.85330046     0.73800
N1960       N  0.73473741  0.16690692  0.89094250    -0.46500
C1961       C  0.76222896  0.35146660  0.81008642     0.43000
N1962       N  0.84893240  0.22005996  0.81727602    -0.46500
Co1963     Co  0.71914386  0.20839724  0.85454834     0.73900
C1964       C  0.67198949  0.22379660  0.81968876    -0.06800
C1965       C  0.73364405  0.33822564  0.89061807    -0.06400
N1966       N  0.82916737  0.26529827  0.83163475    -0.25900
N1967       N  0.67318658  0.28047527  0.89023545    -0.46700
H1968       H  0.70674004  0.34504644  0.81692223     0.07000
C1969       C  0.78926886  0.15749000  0.82007874    -0.06800
Cl1970     Cl  0.76144389  0.25041153  0.85391011    -0.49800
C1971       C  0.76137717  0.15473171  0.90060401     0.42700
H1972       H  0.85435936  0.30078680  0.81421593     0.06900
N1973       N  0.73313802  0.15896930  0.82177458    -0.46500
C1974       C  0.85867029  0.25712334  0.18731299     0.42600
N1975       N  0.82094427  0.24291128  0.16748398     0.01500
C1976       C  0.71976637  0.34230861  0.11073246    -0.06400
H1977       H  0.69336099  0.35270246  0.18396295     0.07000
C1978       C  0.65939062  0.22806533  0.18054215    -0.06800
Co1979     Co  0.79150566  0.29989102  0.14618540     0.74200
N1980       N  0.73066686  0.32443347  0.16763795    -0.25900
Co1981     Co  0.70524472  0.29765783  0.14634402     0.74100
C1982       C  0.64251271  0.25757342  0.18832106     0.42700
N1983       N  0.73760281  0.18980982  0.16882648     0.01100
N1984       N  0.67948759  0.27153412  0.16747821     0.01200
N1985       N  0.77582078  0.34293588  0.11125671    -0.46800
H1986       H  0.84894879  0.31217022  0.18136680     0.06900
N1987       N  0.76350368  0.32506009  0.16741136     0.01500
N1988       N  0.68205412  0.26925461  0.12494305     0.01200
C1989       C  0.65373964  0.25338133  0.10018202     0.42800
N1990       N  0.77031429  0.19113428  0.16888244    -0.25400
C1991       C  0.83415167  0.28403611  0.10923825    -0.06300
N1992       N  0.84379728  0.23107023  0.17935090    -0.46500
N1993       N  0.66400201  0.28002832  0.11021716    -0.46700
C1994       C  0.84771170  0.25428370  0.09957968     0.42600
N1995       N  0.76381363  0.32395413  0.12506390     0.01500
N1996       N  0.77165431  0.18842909  0.12632376    -0.25400
N1997       N  0.81969005  0.27531275  0.16715990    -0.25900
N1998       N  0.73906045  0.18687356  0.12602029     0.01100
H1999       H  0.81077620  0.16857469  0.10796965     0.07000
H2000       H  0.66428122  0.19874477  0.10740593     0.07000
N2001       N  0.73111089  0.32310413  0.12507741    -0.26000
N2002       N  0.68169832  0.23910329  0.16767614    -0.25600
N2003       N  0.82012049  0.24107097  0.12517493     0.01500
C2004       C  0.74898140  0.36033651  0.18955634     0.42900
C2005       C  0.78169647  0.17394484  0.18402979    -0.06800
N2006       N  0.68421931  0.23689439  0.12531976    -0.25600
H2007       H  0.65343376  0.20259742  0.18264795     0.07000
N2008       N  0.77535549  0.34615495  0.18019566    -0.46800
H2009       H  0.80761417  0.16938191  0.18729541     0.07000
C2010       C  0.75628808  0.15667693  0.10182207     0.42700
C2011       C  0.84270750  0.28668299  0.17939430    -0.06300
Co2012     Co  0.79615298  0.21535238  0.14705043     0.73800
N2013       N  0.72571827  0.17206439  0.18326064    -0.46500
C2014       C  0.74957220  0.35552008  0.10159694     0.43000
N2015       N  0.83810697  0.22864247  0.11039688    -0.46500
Co2016     Co  0.71018075  0.21254390  0.14699445     0.73900
C2017       C  0.66715383  0.22463609  0.11038458    -0.06800
C2018       C  0.71920359  0.34578528  0.18139978    -0.06400
N2019       N  0.81767950  0.27337443  0.12484275    -0.25900
N2020       N  0.65599102  0.28363775  0.17952308    -0.46700
H2021       H  0.69389317  0.34785939  0.10788075     0.07000
C2022       C  0.78469669  0.17049819  0.11154308    -0.06800
Cl2023     Cl  0.75071932  0.25641395  0.14675355    -0.49800
C2024       C  0.75202471  0.16139311  0.19367238     0.42700
H2025       H  0.83605920  0.30951571  0.10526143     0.06900
N2026       N  0.72867107  0.16815685  0.11145836    -0.46500
C2027       C  0.58722766  0.49868707  0.69409472     0.42600
N2028       N  0.55857887  0.48251417  0.66963578     0.01500
C2029       C  0.96088634  0.08482896  0.61219399    -0.06400
H2030       H  0.93255800  0.09651617  0.68227657     0.07000
C2031       C  0.90071367  0.46978939  0.67842187    -0.06800
Co2032     Co  0.53291016  0.04136681  0.64750024     0.74200
N2033       N  0.96992499  0.06474408  0.66891045    -0.25900
Co2034     Co  0.94550451  0.03906112  0.64704269     0.74100
C2035       C  0.88554904  0.49920139  0.68786889     0.42700
N2036       N  0.97589831  0.42819901  0.66310016     0.01100
N2037       N  0.92053316  0.01113996  0.66763588     0.01200
N2038       N  0.51976629  0.08156103  0.61046013    -0.46800
H2039       H  0.57667233  0.05385171  0.68787012     0.06900
N2040       N  0.50368745  0.06793754  0.66792594     0.01500
N2041       N  0.92237797  0.01332332  0.62486961     0.01200
C2042       C  0.89838529  0.50449047  0.59622262     0.42800
N2043       N  0.50943095  0.42886724  0.66868230    -0.25400
C2044       C  0.58258348  0.02627476  0.61354891    -0.06300
N2045       N  0.57732819  0.47178991  0.68414112    -0.46500
N2046       N  0.90732829  0.02621240  0.60958819    -0.46700
C2047       C  0.59587363  0.49415366  0.60400493     0.42600
N2048       N  0.50718292  0.06495587  0.62523610     0.01500
N2049       N  0.51249832  0.42739014  0.62585929    -0.25400
N2050       N  0.55688540  0.01606568  0.66951426    -0.25900
N2051       N  0.97775756  0.43400321  0.62051374     0.01100
H2052       H  0.55103619  0.40461468  0.60803501     0.07000
H2053       H  0.90454598  0.44898287  0.60173180     0.07000
N2054       N  0.97187208  0.06553371  0.62650972    -0.26000
N2055       N  0.92173780  0.48118727  0.66487164    -0.25600
N2056       N  0.56211459  0.48060737  0.62693385     0.01500
C2057       C  0.98764184  0.10234496  0.69012940     0.42900
C2058       C  0.52011555  0.40951332  0.68310534    -0.06800
N2059       N  0.92367723  0.48412182  0.62220543    -0.25600
H2060       H  0.89465580  0.44426891  0.68020941     0.07000
N2061       N  0.51451806  0.09065674  0.68010260    -0.46800
H2062       H  0.54581878  0.40363185  0.68628715     0.07000
C2063       C  0.99281369  0.41013976  0.59342484     0.42700
C2064       C  0.57306454  0.02807359  0.68478975    -0.06300
Co2065     Co  0.53631947  0.45421498  0.64781536     0.73800
N2066       N  0.96396769  0.40465670  0.67426017    -0.46500
C2067       C  0.99088826  0.09788776  0.60317697     0.43000
N2068       N  0.58305620  0.46839256  0.61347533    -0.46500
Co2069     Co  0.94920234  0.45634881  0.64279898     0.73900
C2070       C  0.90816516  0.47422291  0.60606475    -0.06800
C2071       C  0.95810569  0.08774973  0.68162229    -0.06400
N2072       N  0.56192206  0.01495028  0.62719264    -0.25900
N2073       N  0.90009704  0.02276901  0.68150664    -0.46700
H2074       H  0.93504511  0.08915825  0.60870109     0.07000
C2075       C  0.52493341  0.40962393  0.61062282    -0.06800
Cl2076     Cl  0.99056089  0.49941720  0.64464037    -0.49800
C2077       C  0.99048839  0.38975097  0.68264063     0.42700
H2078       H  0.58708410  0.05195289  0.61115048     0.06900
N2079       N  0.96629591  0.42010160  0.60448480    -0.46500
C2080       C  0.00836241  0.09198184  0.31443382     0.42600
N2081       N  0.98882500  0.06022402  0.33623606     0.01500
C2082       C  0.57454138  0.45095695  0.39427909    -0.06400
H2083       H  0.59745292  0.42696305  0.32019043     0.07000
C2084       C  0.96583074  0.40459577  0.31689260    -0.06800
Co2085     Co  0.54314993  0.02771238  0.35826357     0.74200
N2086       N  0.56910990  0.46479853  0.33607446    -0.25900
Co2087     Co  0.53691742  0.44084771  0.35520305     0.74100
C2088       C  0.99524791  0.38820120  0.30804485     0.42700
N2089       N  0.92642346  0.47740383  0.33217002     0.01100
N2090       N  0.51141891  0.41965101  0.33200810     0.01200
N2091       N  0.57976766  0.00888233  0.39536420    -0.46800
H2092       H  0.56283593  0.07426515  0.31927261     0.06900
N2093       N  0.57081107  0.99936817  0.33816550     0.01500
N2094       N  0.50451962  0.41778978  0.37457483     0.01200
C2095       C  0.98898054  0.38726079  0.39782775     0.42800
N2096       N  0.93166279  0.01407663  0.33329136    -0.25400
C2097       C  0.52531863  0.07168478  0.39463166    -0.06300
N2098       N  0.97992087  0.08155816  0.32269022    -0.46500
N2099       N  0.51258880  0.39713600  0.38866592    -0.46700
C2100       C  0.99581254  0.08212312  0.40600731     0.42600
N2101       N  0.56272299  0.99854614  0.38022066     0.01500
N2102       N  0.92786131  0.01225634  0.37534702    -0.25400
N2103       N  0.52190434  0.05544463  0.33601277    -0.25900
N2104       N  0.92471317  0.47671163  0.37431106     0.01100
H2105       H  0.90694239  0.05014502  0.39402636     0.07000
H2106       H  0.93447074  0.40226307  0.39172140     0.07000
N2107       N  0.56040274  0.46387688  0.37842862    -0.26000
N2108       N  0.97722887  0.42251703  0.33170558    -0.25600
N2109       N  0.98313993  0.05766827  0.37908349     0.01500
C2110       C  0.61009853  0.48157725  0.31676200     0.42900
C2111       C  0.91000691  0.02721483  0.32065471    -0.06800
N2112       N  0.97409528  0.42122246  0.37422830    -0.25600
H2113       H  0.93986055  0.40204182  0.31351378     0.07000
N2114       N  0.59533649  0.01021086  0.32718198    -0.46800
H2115       H  0.90481806  0.05318877  0.31898569     0.07000
C2116       C  0.89033510  0.49235770  0.39683186     0.42700
C2117       C  0.53635610  0.07229142  0.32166883    -0.06300
Co2118     Co  0.95752709  0.03671080  0.35587431     0.73800
N2119       N  0.90352407  0.46699266  0.31998745    -0.46500
C2120       C  0.58561134  0.47919782  0.40577432     0.43000
N2121       N  0.97027792  0.07439675  0.39425958    -0.46500
Co2122     Co  0.95035295  0.44899323  0.35305498     0.73900
C2123       C  0.96068832  0.40320368  0.38837778    -0.06800
C2124       C  0.59253964  0.45269013  0.32350256    -0.06400
N2125       N  0.51537833  0.05538030  0.37872805    -0.25900
N2126       N  0.52371767  0.39914240  0.31837692    -0.46700
H2127       H  0.57759530  0.42498545  0.39672091     0.07000
C2128       C  0.90809583  0.02468510  0.38952667    -0.06800
Cl2129     Cl  0.99583989  0.48746414  0.35425490    -0.49800
C2130       C  0.88978369  0.49398994  0.31179990     0.42700
H2131       H  0.55087676  0.07473514  0.39863662     0.06900
N2132       N  0.90324297  0.46567894  0.38727431    -0.46500
N2133       N  0.48547809  0.29409364  0.49937316    -0.36500
N2134       N  0.48478532  0.24085449  0.47063870    -0.57000
N2135       N  0.49270589  0.19303432  0.50165229    -0.36500
N2136       N  0.49005837  0.24617085  0.53046850    -0.57000
C2137       C  0.47801864  0.31131635  0.48314863     0.27100
C2138       C  0.47932066  0.31404845  0.51507107     0.27100
C2139       C  0.48453921  0.17317910  0.48658456     0.27100
C2140       C  0.48794270  0.17598972  0.51823067     0.27100
C2141       C  0.48804594  0.26639065  0.45840169     0.35700
C2142       C  0.49086927  0.21329613  0.45979466     0.35700
C2143       C  0.49422188  0.27394619  0.54106331     0.35700
C2144       C  0.49875074  0.22083545  0.54207491     0.35700
C2145       C  0.46738990  0.34286364  0.48856954    -0.21800
C2146       C  0.46816872  0.34457593  0.50870832    -0.21800
C2147       C  0.47494204  0.14304837  0.49365349    -0.21800
C2148       C  0.47727392  0.14475666  0.51362718    -0.21800
C2149       C  0.49585617  0.25493827  0.43968203    -0.22800
C2150       C  0.49781212  0.22134825  0.44059453    -0.22800
C2151       C  0.50559430  0.26615696  0.55952185    -0.22800
C2152       C  0.50848237  0.23249732  0.56014667    -0.22800
C2153       C  0.48274852  0.29990540  0.46360152    -0.18200
C2154       C  0.48566839  0.30608410  0.53483407    -0.18200
C2155       C  0.49417270  0.18741496  0.53735498    -0.18200
C2156       C  0.48718663  0.18091453  0.46657638    -0.18200
H2157       H  0.46024597  0.36270847  0.47899578     0.14700
H2158       H  0.46173914  0.36601575  0.51763268     0.14700
H2159       H  0.46716403  0.12193388  0.48529364     0.14700
H2160       H  0.47163278  0.12522473  0.52362309     0.14700
H2161       H  0.49971229  0.26926437  0.42667824     0.13000
H2162       H  0.50327008  0.20474565  0.42843091     0.13000
H2163       H  0.51063618  0.28293353  0.57144092     0.13000
H2164       H  0.51590990  0.21819468  0.57264559     0.13000
H2165       H  0.49773100  0.27137941  0.49956074     0.26300
H2166       H  0.50414316  0.21552914  0.50057415     0.26300
N2167       N  0.69438555  0.48355958  0.50292130    -0.36500
N2168       N  0.74793152  0.49536144  0.53001533    -0.57000
N2169       N  0.79599445  0.49015676  0.49832672    -0.36500
N2170       N  0.74245378  0.48030205  0.47120223    -0.57000
C2171       C  0.67661961  0.49140661  0.51928911     0.27100
C2172       C  0.67379597  0.48701692  0.48756605     0.27100
C2173       C  0.81435626  0.50443759  0.51229985     0.27100
C2174       C  0.81147695  0.49503415  0.48102994     0.27100
C2175       C  0.72322329  0.48939260  0.54292322     0.35700
C2176       C  0.77641339  0.49470519  0.54023623     0.35700
C2177       C  0.71499008  0.47199157  0.46143563     0.35700
C2178       C  0.76860537  0.47240840  0.45939079     0.35700
C2179       C  0.64396146  0.49879360  0.51435422    -0.21800
C2180       C  0.64230424  0.49648955  0.49431563    -0.21800
C2181       C  0.84202942  0.51832739  0.50382721    -0.21800
C2182       C  0.84017634  0.51246212  0.48402306    -0.21800
C2183       C  0.73611515  0.48528009  0.56145257    -0.22800
C2184       C  0.76982350  0.48818988  0.55968464    -0.22800
C2185       C  0.72368330  0.45841920  0.44335063    -0.22800
C2186       C  0.75777380  0.45853975  0.44208444    -0.22800
C2187       C  0.68898966  0.49078867  0.53856024    -0.18200
C2188       C  0.68228606  0.48007924  0.46777402    -0.18200
C2189       C  0.80132052  0.48226177  0.46286182    -0.18200
C2190       C  0.80774929  0.50312985  0.53257153    -0.18200
H2191       H  0.62336458  0.50517412  0.52411061     0.14700
H2192       H  0.62024992  0.50073424  0.48574506     0.14700
H2193       H  0.86164642  0.53105336  0.51117579     0.14700
H2194       H  0.85816920  0.51971883  0.47311358     0.14700
H2195       H  0.72275792  0.48122687  0.57498248     0.13000
H2196       H  0.78732972  0.48655942  0.57150313     0.13000
H2197       H  0.70714095  0.45029781  0.43204632     0.13000
H2198       H  0.77277755  0.45071687  0.42954083     0.13000
H2199       H  0.71828992  0.47334584  0.50256817     0.26300
H2200       H  0.77625994  0.47461620  0.50063923     0.26300
C2201       C  0.00432940  0.20594821  0.26341857     0.86600
C2202       C  0.53250751  0.21151597  0.24865782    -0.53600
C2203       C  0.52939501  0.24007729  0.23863563     0.09500
C2204       C  0.99720524  0.25875897  0.24218542     0.20500
C2205       C  0.99777952  0.23838364  0.27527478    -0.54300
C2206       C  0.99448008  0.26583831  0.26418405     0.09600
C2207       C  0.97470461  0.20527616  0.24957006    -0.53900
C2208       C  0.97002255  0.23293333  0.23871371     0.10200
H2209       H  0.55445290  0.19543897  0.24739697     0.14700
H2210       H  0.99461348  0.28133142  0.23334415     0.00500
H2211       H  0.99574180  0.24023911  0.29103775     0.15000
H2212       H  0.95872293  0.18452217  0.24869992     0.14800
C2213       C  0.96588632  0.34029514  0.29459141    -0.05700
C2214       C  0.99515905  0.35839814  0.29517149     0.00300
C2215       C  0.52418697  0.34906668  0.28221515    -0.08300
C2216       C  0.52179964  0.31891640  0.27196919    -0.05700
C2217       C  0.99223281  0.29931735  0.27307485     0.00300
C2218       C  0.96391197  0.31095039  0.28374671    -0.08200
C2219       C  0.93153386  0.29280753  0.28347286     0.62200
H2220       H  0.94462127  0.34845592  0.30333171     0.12900
H2221       H  0.54132867  0.31098601  0.26183509     0.12900
C2222       C  0.55416135  0.37024665  0.27875156     0.62400
F2223       F  0.90573489  0.31092094  0.29232086    -0.22800
F2224       F  0.93515081  0.26354669  0.29330685    -0.20100
F2225       F  0.92279824  0.28666866  0.26435032    -0.19800
F2226       F  0.57176619  0.37363000  0.29580161    -0.19800
F2227       F  0.54375203  0.40092376  0.27244033    -0.20100
F2228       F  0.57569461  0.35660145  0.26474119    -0.22800
C2229       C  0.50174515  0.11376080  0.27901579    -0.05700
C2230       C  0.01025009  0.12064094  0.30156419     0.00300
C2231       C  0.01913171  0.15194786  0.30847377    -0.08300
C2232       C  0.01918618  0.17815839  0.29532126    -0.05700
C2233       C  0.00950380  0.17462461  0.27564318     0.00300
C2234       C  0.50235829  0.14045344  0.26608312    -0.08200
C2235       C  0.49683496  0.13189659  0.24466125     0.62200
H2236       H  0.49487721  0.08974037  0.27362181     0.12900
H2237       H  0.02761117  0.20153662  0.30053038     0.12900
C2238       C  0.02768890  0.15792907  0.32975966     0.62400
F2239       F  0.46375070  0.12493488  0.24199822    -0.22800
F2240       F  0.51591731  0.10423783  0.23950988    -0.20100
F2241       F  0.50577481  0.15624460  0.23196676    -0.19800
F2242       F  0.05636659  0.14041500  0.33429354    -0.19800
F2243       F  0.00190292  0.14804861  0.34168952    -0.20100
F2244       F  0.03293527  0.19080665  0.33375120    -0.22800
C2245       C  0.96401051  0.12428897  0.42565320    -0.05700
C2246       C  0.99249090  0.10351691  0.42386146     0.00300
C2247       C  0.51216511  0.10391463  0.43769755    -0.08300
C2248       C  0.51058658  0.12902987  0.45196659    -0.05700
C2249       C  0.48555130  0.15368063  0.45189074     0.00300
C2250       C  0.96022843  0.14773287  0.44088632    -0.08200
C2251       C  0.92800541  0.16775775  0.44327112     0.62200
H2252       H  0.94481973  0.12249749  0.41480454     0.12900
H2253       H  0.52867101  0.12915154  0.46354789     0.12900
C2254       C  0.53419039  0.07380138  0.44134344     0.62400
F2255       F  0.90469077  0.15871655  0.42967509    -0.22800
F2256       F  0.93372978  0.20081800  0.44105214    -0.20100
F2257       F  0.91466268  0.16279003  0.46169231    -0.19800
F2258       F  0.56486496  0.07708527  0.43240937    -0.19800
F2259       F  0.51947955  0.04565281  0.43445818    -0.20100
F2260       F  0.53904648  0.06977575  0.46116619    -0.22800
C2261       C  0.51019291  0.36212702  0.42596379    -0.05700
C2262       C  0.98898843  0.36371772  0.41417875     0.00300
C2263       C  0.96694891  0.33711193  0.41544599    -0.08300
C2264       C  0.96871116  0.31664596  0.43182035    -0.05700
C2265       C  0.99314465  0.32026465  0.44605852     0.00300
C2266       C  0.51142042  0.34086735  0.44200541    -0.08200
C2267       C  0.54389152  0.33457535  0.45250466     0.62200
H2268       H  0.53181001  0.37614318  0.42227959     0.12900
H2269       H  0.95108970  0.29719335  0.43355047     0.12900
C2270       C  0.94256781  0.32900409  0.39945195     0.62400
F2271       F  0.56972336  0.35137744  0.44420043    -0.22800
F2272       F  0.55240059  0.30145534  0.45147862    -0.20100
F2273       F  0.54064788  0.34423751  0.47186829    -0.19800
F2274       F  0.95746614  0.33174512  0.38122988    -0.19800
F2275       F  0.91506929  0.34995890  0.40089209    -0.20100
F2276       F  0.93172209  0.29711830  0.40095494    -0.22800
C2277       C  0.63415061  0.00986854  0.42289000    -0.05700
C2278       C  0.60779951  0.47965706  0.42303939     0.00300
C2279       C  0.60875697  0.45487992  0.43750980    -0.08300
C2280       C  0.63363376  0.45574082  0.45173136    -0.05700
C2281       C  0.65575826  0.48157650  0.45283609     0.00300
C2282       C  0.65780045  0.01276431  0.43766468    -0.08200
C2283       C  0.67874494  0.04322206  0.43890460     0.62200
H2284       H  0.63224152  0.02871118  0.41191996     0.12900
H2285       H  0.63607435  0.43603523  0.46215131     0.12900
C2286       C  0.58412140  0.42748943  0.43849128     0.62400
F2287       F  0.66892827  0.06666868  0.42553679    -0.22800
F2288       F  0.71178237  0.03505707  0.43517662    -0.20100
F2289       F  0.67017420  0.55113879  0.46071355    -0.19800
F2290       F  0.60114244  0.90550736  0.42577431    -0.19800
F2291       F  0.55270387  0.43853100  0.43329915    -0.20100
F2292       F  0.58157658  0.41546776  0.45727448    -0.22800
C2293       C  0.87224006  0.46521872  0.42671060    -0.05700
C2294       C  0.86685126  0.49068325  0.41340541     0.00300
C2295       C  0.83888047  0.51237419  0.41584600    -0.08300
C2296       C  0.81856240  0.50901239  0.43245737    -0.05700
C2297       C  0.82439391  0.48394339  0.44590892     0.00300
C2298       C  0.85110868  0.46114276  0.44289906    -0.08200
C2299       C  0.86257625  0.93768762  0.45833713     0.62200
H2300       H  0.89609517  0.95216797  0.42481576     0.12900
H2301       H  0.79765587  0.52592116  0.43506099     0.12900
C2302       C  0.82947239  0.53845067  0.40107123     0.62400
F2303       F  0.88398748  0.41289415  0.45056163    -0.22800
F2304       F  0.82890531  0.41257762  0.45583815    -0.20100
F2305       F  0.87268937  0.94973221  0.47618346    -0.19800
F2306       F  0.83475440  0.52683643  0.38217840    -0.19800
F2307       F  0.85558182  0.07057366  0.40552608    -0.20100
F2308       F  0.79615627  0.54761444  0.40283394    -0.22800
C2309       C  0.62673272  0.02538232  0.57724814    -0.05700
C2310       C  0.62032227  0.49227327  0.58746824     0.00300
C2311       C  0.63983606  0.46358025  0.58260330    -0.08300
C2312       C  0.66051498  0.46392833  0.56590745    -0.05700
C2313       C  0.66500580  0.49261889  0.55522276     0.00300
C2314       C  0.64880304  0.02706743  0.56124791    -0.08200
C2315       C  0.65745807  0.06036336  0.55298712     0.62200
H2316       H  0.61406721  0.04767449  0.58226548     0.12900
H2317       H  0.67444251  0.44193568  0.56135178     0.12900
C2318       C  0.64018813  0.43306603  0.59511289     0.62400
F2319       F  0.64431794  0.08600662  0.56438335    -0.22800
F2320       F  0.62470523  0.56518396  0.54242119    -0.20100
F2321       F  0.69157672  0.06352915  0.55229849    -0.19800
F2322       F  0.60993768  0.41828750  0.59409234    -0.19800
F2323       F  0.65131320  0.94370946  0.61156960    -0.20100
F2324       F  0.66437584  0.41021766  0.58899482    -0.22800
C2325       C  0.85502411  0.53259719  0.57685999    -0.05700
C2326       C  0.88005073  0.50797845  0.57773450     0.00300
C2327       C  0.88527812  0.48629126  0.56151484    -0.08300
C2328       C  0.86179702  0.48652068  0.54655371    -0.05700
C2329       C  0.83508229  0.50933684  0.54650048     0.00300
C2330       C  0.83294662  0.53430798  0.56116718    -0.08200
C2331       C  0.80714439  0.56223702  0.56139183     0.62200
H2332       H  0.85188665  0.55005602  0.58888366     0.12900
H2333       H  0.86374370  0.46801681  0.53502791     0.12900
C2334       C  0.91472051  0.46231632  0.55949423     0.62400
F2335       F  0.82264756  0.59171608  0.56457796    -0.22800
F2336       F  0.78445262  0.55762826  0.57639928    -0.20100
F2337       F  0.79361139  0.06737795  0.54613793    -0.19800
F2338       F  0.90553251  0.43170657  0.56581322    -0.19800
F2339       F  0.93682798  0.96175721  0.57204774    -0.20100
F2340       F  0.91564212  0.94583467  0.54375261    -0.22800
C2341       C  0.96306155  0.14022344  0.58310303    -0.05700
C2342       C  0.99238133  0.12204037  0.58702939     0.00300
C2343       C  0.52353257  0.11919259  0.57080435    -0.08300
C2344       C  0.52234656  0.14324104  0.55617331    -0.05700
C2345       C  0.98948065  0.16665738  0.55572976     0.00300
C2346       C  0.96092491  0.16213782  0.56750277    -0.08200
C2347       C  0.92804414  0.17965584  0.56326348     0.62200
H2348       H  0.94140669  0.13713387  0.59232133     0.12900
H2349       H  0.54362533  0.14671672  0.54663549     0.12900
C2350       C  0.55448513  0.09726708  0.57239762     0.62400
F2351       F  0.90346998  0.17192504  0.57666233    -0.22800
F2352       F  0.91746517  0.17052032  0.54491300    -0.20100
F2353       F  0.93168814  0.21329888  0.56394303    -0.19800
F2354       F  0.54590052  0.06457865  0.57200443    -0.19800
F2355       F  0.57058623  0.10425364  0.58958601    -0.20100
F2356       F  0.57663939  0.10197271  0.55709718    -0.22800
C2357       C  0.96521587  0.36363655  0.57791634    -0.05700
C2358       C  0.99037917  0.38677943  0.57668393     0.00300
C2359       C  0.51863108  0.37407724  0.56679203    -0.08300
C2360       C  0.51446483  0.35120890  0.55147507    -0.05700
C2361       C  0.98441321  0.33674765  0.54781478     0.00300
C2362       C  0.96096650  0.33945977  0.56345977    -0.08200
C2363       C  0.93076063  0.31824224  0.56569882     0.62200
H2364       H  0.94831227  0.36439611  0.59040181     0.12900
H2365       H  0.53435557  0.34641686  0.54090115     0.12900
C2366       C  0.55076195  0.39241408  0.56703050     0.62400
F2367       F  0.90259875  0.33841301  0.56740120    -0.22800
F2368       F  0.93366069  0.29996824  0.58251024    -0.20100
F2369       F  0.92636515  0.29713591  0.55006108    -0.19800
F2370       F  0.57243052  0.37627779  0.57931290    -0.19800
F2371       F  0.03434390  0.43961117  0.56735086    -0.20100
F2372       F  0.56545907  0.39308293  0.54862375    -0.22800
C2373       C  0.61586028  0.26167227  0.22066284    -0.05700
C2374       C  0.61203731  0.25869896  0.20051979     0.00300
C2375       C  0.58008017  0.25407591  0.19275137    -0.08300
C2376       C  0.55290459  0.25075213  0.20578079    -0.05700
C2377       C  0.55714619  0.25142153  0.22611952     0.00300
C2378       C  0.58911205  0.25793260  0.23372560    -0.08200
C2379       C  0.59733846  0.26060595  0.25527193     0.62200
H2380       H  0.64049082  0.26562618  0.22634323     0.12900
H2381       H  0.52855122  0.24556888  0.20017829     0.12900
C2382       C  0.57509829  0.25184799  0.17084835     0.62400
F2383       F  0.62116113  0.23681136  0.25965236    -0.22800
F2384       F  0.57052140  0.25685250  0.26767146    -0.20100
F2385       F  0.61014392  0.29121111  0.25900540    -0.19800
F2386       F  0.59214024  0.22453523  0.16323962    -0.19800
F2387       F  0.58694870  0.27972151  0.16208666    -0.20100
F2388       F  0.54188289  0.24928889  0.16623262    -0.22800
C2389       C  0.88134217  0.23805043  0.21814665    -0.05700
C2390       C  0.88713983  0.25382747  0.20053302     0.00300
C2391       C  0.91993723  0.26159230  0.19503157    -0.08300
C2392       C  0.94591377  0.25449988  0.20806371    -0.05700
C2393       C  0.94034494  0.23884728  0.22600129     0.00300
C2394       C  0.90698845  0.23041606  0.23118215    -0.08200
C2395       C  0.89692581  0.21213767  0.24954945     0.62200
H2396       H  0.85613257  0.23091076  0.22143243     0.12900
H2397       H  0.97110536  0.26038272  0.20400942     0.12900
C2398       C  0.92761398  0.27564942  0.17509492     0.62400
F2399       F  0.86366903  0.21796176  0.25424053    -0.22800
F2400       F  0.91470122  0.22185862  0.26556600    -0.20100
F2401       F  0.90149214  0.17869500  0.24637282    -0.19800
F2402       F  0.91272772  0.30646800  0.17356773    -0.19800
F2403       F  0.91566564  0.25523162  0.16064238    -0.20100
F2404       F  0.96144911  0.27859765  0.17192038    -0.22800
C2405       C  0.77829522  0.08743022  0.06556091    -0.05700
C2406       C  0.75289029  0.09156257  0.05198325     0.00300
C2407       C  0.72854944  0.11696191  0.05481383    -0.08300
C2408       C  0.73130271  0.13836388  0.07097086    -0.05700
C2409       C  0.75643082  0.13392843  0.08478495     0.00300
C2410       C  0.77971165  0.10722310  0.08245572    -0.08200
C2411       C  0.80404606  0.09731543  0.09826426     0.62200
H2412       H  0.79610379  0.06725956  0.06327694     0.12900
H2413       H  0.71332045  0.15839373  0.07318744     0.12900
C2414       C  0.69899867  0.12035624  0.04138397     0.62400
F2415       F  0.81549438  0.06515505  0.09568616    -0.22800
F2416       F  0.78875082  0.09948504  0.11648307    -0.20100
F2417       F  0.83127584  0.11720246  0.09774635    -0.19800
F2418       F  0.68197325  0.09128856  0.04100985    -0.19800
F2419       F  0.70963908  0.12745006  0.02268067    -0.20100
F2420       F  0.67706781  0.14523781  0.04756210    -0.22800
C2421       C  0.77611070  0.42037653  0.06513484    -0.05700
C2422       C  0.75021234  0.41896667  0.05171997     0.00300
C2423       C  0.72457808  0.39631872  0.05443227    -0.08300
C2424       C  0.72585731  0.37573862  0.07073678    -0.05700
C2425       C  0.75142654  0.37739206  0.08443712     0.00300
C2426       C  0.77711198  0.40024710  0.08165425    -0.08200
C2427       C  0.80483777  0.40454275  0.09622865     0.62200
H2428       H  0.79524117  0.43814999  0.06270407     0.12900
H2429       H  0.70665179  0.35814394  0.07291926     0.12900
C2430       C  0.69553689  0.39453729  0.04055849     0.62400
F2431       F  0.82414769  0.43119380  0.09184778    -0.22800
F2432       F  0.82544761  0.37682245  0.09602906    -0.20100
F2433       F  0.79152243  0.40975565  0.11478542    -0.19800
F2434       F  0.70676979  0.38533842  0.02208754    -0.19800
F2435       F  0.67945561  0.42491295  0.03969795    -0.20100
F2436       F  0.67258036  0.37184449  0.04650639    -0.22800
C2437       C  0.73625861  0.11430412  0.94863052    -0.05700
C2438       C  0.76154137  0.09016723  0.95026497     0.00300
C2439       C  0.78815695  0.08916143  0.93648151    -0.08300
C2440       C  0.78676218  0.11038295  0.92047082    -0.05700
C2441       C  0.76056990  0.13351060  0.91818296     0.00300
C2442       C  0.73548253  0.13640795  0.93295712    -0.08200
C2443       C  0.70778015  0.16233495  0.93228928     0.62200
H2444       H  0.71637229  0.11492353  0.95946985     0.12900
H2445       H  0.80647974  0.10858263  0.90953871     0.12900
C2446       C  0.81848212  0.06636168  0.93784144     0.62400
F2447       F  0.69003245  0.16449921  0.94974818    -0.22800
F2448       F  0.68605022  0.15432188  0.91764540    -0.20100
F2449       F  0.72075464  0.19288750  0.92881790    -0.19800
F2450       F  0.81813807  0.04348809  0.92274877    -0.19800
F2451       F  0.82012857  0.04991468  0.95534144    -0.20100
F2452       F  0.84693385  0.08452177  0.93606261    -0.22800
C2453       C  0.79155239  0.41401692  0.93775237    -0.05700
C2454       C  0.76320665  0.41662379  0.94986068     0.00300
C2455       C  0.73577134  0.39665994  0.94596915    -0.08300
C2456       C  0.73771341  0.37469735  0.92991883    -0.05700
C2457       C  0.76561474  0.37265139  0.91728399     0.00300
C2458       C  0.79325251  0.39271406  0.92132747    -0.08200
C2459       C  0.82383241  0.39317427  0.90807231     0.62200
H2460       H  0.81203429  0.42981179  0.94101158     0.12900
H2461       H  0.71695688  0.35913566  0.92701429     0.12900
C2462       C  0.70404120  0.39946443  0.95824495     0.62400
F2463       F  0.84633915  0.41616942  0.91418538    -0.22800
F2464       F  0.81451676  0.40107917  0.88930243    -0.20100
F2465       F  0.83999760  0.36279626  0.90799455    -0.19800
F2466       F  0.67969945  0.37916048  0.95127754    -0.19800
F2467       F  0.69162571  0.43146567  0.95803686    -0.20100
F2468       F  0.71041958  0.39070820  0.97727168    -0.22800
C2469       C  0.97802926  0.17307613  0.72712646    -0.05700
C2470       C  0.00253184  0.19419768  0.72034216     0.00300
C2471       C  0.52126969  0.18802772  0.70440807    -0.08300
C2472       C  0.51448718  0.15923329  0.69372349    -0.05700
C2473       C  0.98985250  0.13477392  0.70019588     0.00300
C2474       C  0.97139352  0.14326977  0.71740270    -0.08200
C2475       C  0.94581523  0.12057515  0.72596912     0.62200
H2476       H  0.96472293  0.17971595  0.74050992     0.12900
H2477       H  0.52952290  0.15286171  0.68091517     0.12900
C2478       C  0.54904908  0.20967483  0.69745940     0.62400
F2479       F  0.93479539  0.13118060  0.74428867    -0.22800
F2480       F  0.95944629  0.08922450  0.72779949    -0.20100
F2481       F  0.91856923  0.11958067  0.71396706    -0.19800
F2482       F  0.57719113  0.20300853  0.70814149    -0.19800
F2483       F  0.54001319  0.24254466  0.69965608    -0.20100
F2484       F  0.55669660  0.20396781  0.67790407    -0.22800
C2485       C  0.98860644  0.30358710  0.70400368    -0.05700
C2486       C  0.99576056  0.31034188  0.72368019     0.00300
C2487       C  0.49448330  0.34436253  0.73645057    -0.08300
C2488       C  0.49368210  0.37105876  0.72373247    -0.05700
C2489       C  0.98948460  0.36193035  0.69637319     0.00300
C2490       C  0.98522450  0.32897567  0.69019255    -0.08200
C2491       C  0.97847927  0.32074731  0.66897390     0.62200
H2492       H  0.98733811  0.27814640  0.69931224     0.12900
H2493       H  0.49630798  0.39576792  0.72953187     0.12900
C2494       C  0.49571610  0.35205429  0.75818180     0.62400
F2495       F  0.97545478  0.28727534  0.66589561    -0.22800
F2496       F  0.50150683  0.34291486  0.66304254    -0.20100
F2497       F  0.94918565  0.33624756  0.66341797    -0.19800
F2498       F  0.52739700  0.36135632  0.76298237    -0.19800
F2499       F  0.99656870  0.32979685  0.76431069    -0.20100
F2500       F  0.47362133  0.37774118  0.76276900    -0.22800
C2501       C  0.56890622  0.26518442  0.79309851    -0.05700
C2502       C  0.57181360  0.25346407  0.77358727     0.00300
C2503       C  0.60476469  0.24724852  0.76597414    -0.08300
C2504       C  0.63155243  0.24610960  0.77904529    -0.05700
C2505       C  0.62771069  0.25530008  0.79870828     0.00300
C2506       C  0.59605059  0.26588130  0.80581795    -0.08200
C2507       C  0.59065528  0.27696696  0.82691916     0.62200
H2508       H  0.54518832  0.27467592  0.79847001     0.12900
H2509       H  0.65626004  0.23917534  0.77365581     0.12900
C2510       C  0.61393217  0.24300025  0.74444481     0.62400
F2511       F  0.55746041  0.28396837  0.83120729    -0.22800
F2512       F  0.60822518  0.30505795  0.83053444    -0.20100
F2513       F  0.60139806  0.25238503  0.83926922    -0.19800
F2514       F  0.59056219  0.25679215  0.73226942    -0.19800
F2515       F  0.61841272  0.20993678  0.74003761    -0.20100
F2516       F  0.64344988  0.25848313  0.74045813    -0.22800
C2517       C  0.92229318  0.26120558  0.76566692    -0.05700
C2518       C  0.94952244  0.24129806  0.77115349     0.00300
C2519       C  0.94524812  0.21881183  0.78670129    -0.08300
C2520       C  0.91607847  0.22133466  0.79820441    -0.05700
C2521       C  0.88981667  0.24296625  0.79351440     0.00300
C2522       C  0.89194309  0.26141415  0.77616503    -0.08200
C2523       C  0.86242708  0.28099116  0.76849234     0.62200
H2524       H  0.92513320  0.27754639  0.75343195     0.12900
H2525       H  0.91370102  0.20599851  0.81095251     0.12900
C2526       C  0.96982334  0.19107049  0.79127635     0.62400
F2527       F  0.86631156  0.28713288  0.74875837    -0.22800
F2528       F  0.85926497  0.31070831  0.77838022    -0.20100
F2529       F  0.83352053  0.26370813  0.77084783    -0.19800
F2530       F  0.98920556  0.20007268  0.80686262    -0.19800
F2531       F  0.99005915  0.18269980  0.77541642    -0.20100
F2532       F  0.95284629  0.16317866  0.79630186    -0.22800
C2533       C  0.80255887  0.01829664  0.71342423    -0.05700
C2534       C  0.79921771  0.49704816  0.72631585     0.00300
C2535       C  0.82330168  0.47102004  0.72587170    -0.08300
C2536       C  0.85144825  0.47340826  0.71354885    -0.05700
C2537       C  0.85612024  0.50050633  0.70140615     0.00300
C2538       C  0.83070292  0.02089031  0.70129508    -0.08200
C2539       C  0.83096967  0.04758588  0.68595307     0.62200
H2540       H  0.78213617  0.03584697  0.71209094     0.12900
H2541       H  0.86994622  0.45361238  0.71307527     0.12900
C2542       C  0.81815051  0.43967953  0.73703138     0.62400
F2543       F  0.80766718  0.57830973  0.69150213    -0.22800
F2544       F  0.83681791  0.54760341  0.66968267    -0.20100
F2545       F  0.85554643  0.06965339  0.69000466    -0.19800
F2546       F  0.78918292  0.42567192  0.73085997    -0.19800
F2547       F  0.81831381  0.94653473  0.76003099    -0.20100
F2548       F  0.84819006  0.91651920  0.73827584    -0.22800
C2549       C  0.64727229  0.48178054  0.73555745    -0.05700
C2550       C  0.67402367  0.50233881  0.73077134     0.00300
C2551       C  0.66940831  0.52445945  0.71479576    -0.11900
C2552       C  0.64124608  0.52138225  0.70308502    -0.05700
C2553       C  0.61625468  0.49920089  0.70717732     0.00300
C2554       C  0.61860200  0.47977781  0.72402048    -0.08200
C2555       C  0.59055023  0.45754035  0.72996378     0.62200
H2556       H  0.64817566  0.46732647  0.74856955     0.12900
H2557       H  0.63876666  0.53679389  0.69035647     0.12900
C2558       C  0.69263517  0.05132620  0.70796678     0.62400
F2559       F  0.59558648  0.44394048  0.74814447    -0.22800
F2560       F  0.58819522  0.43215721  0.71649042    -0.20100
F2561       F  0.56255482  0.96832569  0.73037304    -0.19800
F2562       F  0.67459131  0.58002650  0.70519193    -0.19800
F2563       F  0.72136530  0.05402922  0.71836295    -0.20100
F2564       F  0.67570828  0.08131991  0.70952285    -0.22800
C2565       C  0.72886001  0.06159117  0.79273196    -0.05700
C2566       C  0.75091737  0.05615937  0.77694414     0.00300
C2567       C  0.77687515  0.07840271  0.77373050    -0.08300
C2568       C  0.77928685  0.10573599  0.78639172    -0.05700
C2569       C  0.75644159  0.11161929  0.80177403     0.00300
C2570       C  0.73166724  0.08832569  0.80563379    -0.08200
C2571       C  0.70860789  0.09079199  0.82340292     0.62200
H2572       H  0.70843810  0.04514840  0.79452852     0.12900
H2573       H  0.79821257  0.12365673  0.78382350     0.12900
C2574       C  0.80024567  0.07499680  0.75625945     0.62400
F2575       F  0.69193106  0.06188815  0.82631080    -0.22800
F2576       F  0.68510038  0.11573283  0.82098683    -0.20100
F2577       F  0.72678151  0.09686878  0.84000708    -0.19800
F2578       F  0.78206042  0.07708262  0.73935688    -0.19800
F2579       F  0.81737939  0.04520423  0.75671050    -0.20100
F2580       F  0.82344172  0.09951903  0.75592784    -0.22800
C2581       C  0.75125373  0.40914927  0.76793644    -0.05700
C2582       C  0.75167023  0.44004484  0.77735872     0.00300
C2583       C  0.75878999  0.44163972  0.79762218    -0.08300
C2584       C  0.76418621  0.41201025  0.80773040    -0.05700
C2585       C  0.76250384  0.38140851  0.79825344     0.00300
C2586       C  0.75723409  0.37981798  0.77799166    -0.08200
C2587       C  0.75737585  0.34703957  0.76721341     0.62200
H2588       H  0.74494260  0.40803724  0.75264807     0.12900
H2589       H  0.76817917  0.41235918  0.82333965     0.12900
C2590       C  0.75781285  0.47388545  0.80896937     0.62400
F2591       F  0.75580029  0.35093607  0.74719112    -0.22800
F2592       F  0.73039114  0.32924547  0.77323593    -0.20100
F2593       F  0.78633392  0.32945825  0.77120206    -0.19800
F2594       F  0.72685836  0.48882420  0.80712357    -0.19800
F2595       F  0.78195733  0.49434028  0.80204379    -0.20100
F2596       F  0.76339408  0.46938214  0.82867303    -0.22800
C2597       C  0.59710754  0.28042513  0.05833081    -0.05700
C2598       C  0.58856336  0.24999657  0.05052466     0.00300
C2599       C  0.60236334  0.22079001  0.05820178    -0.08300
C2600       C  0.62358053  0.22308149  0.07427856    -0.05700
C2601       C  0.63180637  0.25362554  0.08267488     0.00300
C2602       C  0.61895604  0.28298579  0.07407400    -0.08200
C2603       C  0.62834428  0.31702125  0.08094633     0.62200
H2604       H  0.58612463  0.30228418  0.05193716     0.12900
H2605       H  0.63381387  0.20069190  0.08029072     0.12900
C2606       C  0.59477290  0.18750049  0.04924213     0.62400
F2607       F  0.61460887  0.34156172  0.06953421    -0.22800
F2608       F  0.66243576  0.31953023  0.07979023    -0.20100
F2609       F  0.61726371  0.32255422  0.09994301    -0.19800
F2610       F  0.60520684  0.18653495  0.02990581    -0.19800
F2611       F  0.56101437  0.18222780  0.05012680    -0.20100
F2612       F  0.61067317  0.16199474  0.05884841    -0.22800
C2613       C  0.90125131  0.22550498  0.05580845    -0.05700
C2614       C  0.91652174  0.25485640  0.05118362     0.00300
C2615       C  0.90929780  0.28378812  0.06208981    -0.08300
C2616       C  0.88667194  0.28222249  0.07769430    -0.05700
C2617       C  0.87130430  0.25277218  0.08273746     0.00300
C2618       C  0.87877364  0.22366230  0.07157156    -0.08200
C2619       C  0.86354276  0.19077192  0.07593600     0.62200
H2620       H  0.90795571  0.20378454  0.04716964     0.12900
H2621       H  0.88159426  0.30420380  0.08631486     0.12900
C2622       C  0.92560490  0.31604708  0.05731895     0.62400
F2623       F  0.87323256  0.16673322  0.06236167    -0.22800
F2624       F  0.82928621  0.19392495  0.07551038    -0.20100
F2625       F  0.87359955  0.18006257  0.09405528    -0.19800
F2626       F  0.95961620  0.31294772  0.05952816    -0.19800
F2627       F  0.91408490  0.34152103  0.06941426    -0.20100
F2628       F  0.91888522  0.32450851  0.03826578    -0.22800
C2629       C  0.59721222  0.28436519  0.93925013    -0.05700
C2630       C  0.59128592  0.25469714  0.94860715     0.00300
C2631       C  0.60822057  0.22560032  0.94239351    -0.08300
C2632       C  0.63094301  0.22721009  0.92677109    -0.05700
C2633       C  0.63672019  0.25669999  0.91687052     0.00300
C2634       C  0.61955996  0.28605448  0.92331633    -0.08200
C2635       C  0.62390814  0.31894057  0.91348125     0.62200
H2636       H  0.58347912  0.30611295  0.94438278     0.12900
H2637       H  0.64416925  0.20499947  0.92219236     0.12900
C2638       C  0.60167280  0.19291285  0.95203302     0.62400
F2639       F  0.60349838  0.34342646  0.92175758    -0.22800
F2640       F  0.61603195  0.31637335  0.89392975    -0.20100
F2641       F  0.65635701  0.32863864  0.91537086    -0.19800
F2642       F  0.56849623  0.18551831  0.95036897    -0.19800
F2643       F  0.60960648  0.19467428  0.97158350    -0.20100
F2644       F  0.62031272  0.16735407  0.94352852    -0.22800
C2645       C  0.89708870  0.27326280  0.92206738    -0.05700
C2646       C  0.87967740  0.24489657  0.91704274     0.00300
C2647       C  0.88295272  0.21648164  0.92891550    -0.08300
C2648       C  0.90404533  0.21763873  0.94504636    -0.05700
C2649       C  0.92155815  0.24578598  0.94956813     0.00300
C2650       C  0.91794438  0.27427254  0.93823336    -0.08200
C2651       C  0.93604418  0.30554642  0.94328350     0.62200
H2652       H  0.89483355  0.29476602  0.91305956     0.12900
H2653       H  0.90771348  0.19630884  0.95414451     0.12900
C2654       C  0.86446804  0.18509593  0.92501509     0.62400
F2655       F  0.92872880  0.33059980  0.93043297    -0.22800
F2656       F  0.97002962  0.29968170  0.94261983    -0.20100
F2657       F  0.92679348  0.31630113  0.96185754    -0.19800
F2658       F  0.87528070  0.17109906  0.90747575    -0.19800
F2659       F  0.83069586  0.19207688  0.92451183    -0.20100
F2660       F  0.86976225  0.16199089  0.93940419    -0.22800
C2661       C  0.80191668  0.51062630  0.29352991    -0.05700
C2662       C  0.80436617  0.49677964  0.27471130     0.00300
C2663       C  0.83177764  0.97685778  0.27327207    -0.08300
C2664       C  0.85997914  0.97755571  0.28517123    -0.05700
C2665       C  0.85912688  0.49385996  0.30004490     0.00300
C2666       C  0.82865071  0.50886101  0.30655991    -0.08200
C2667       C  0.82395131  0.52223325  0.32723786     0.62200
H2668       H  0.77912525  0.52382401  0.29771422     0.12900
H2669       H  0.88155092  0.96202272  0.28160295     0.12900
C2670       C  0.83113968  0.95332618  0.25599522     0.62400
F2671       F  0.79099317  0.53064973  0.33133250    -0.22800
F2672       F  0.84537652  0.06564803  0.32525781    -0.20100
F2673       F  0.83394980  0.49864825  0.34045070    -0.19800
F2674       F  0.82995363  0.97089151  0.23892211    -0.19800
F2675       F  0.81256403  0.43480247  0.25004878    -0.20100
F2676       F  0.85904779  0.93267925  0.25515197    -0.22800
C2677       C  0.69500711  0.98081251  0.29371933    -0.05700
C2678       C  0.68830441  0.50084878  0.27553268     0.00300
C2679       C  0.65434021  0.50823546  0.27109946    -0.08300
C2680       C  0.62973387  0.50115995  0.28505315    -0.05700
C2681       C  0.63712859  0.48412759  0.30210291     0.00300
C2682       C  0.66955993  0.97212862  0.30683098    -0.08200
C2683       C  0.67728983  0.94932201  0.32361511     0.62200
H2684       H  0.72032447  0.97279080  0.29646381     0.12900
H2685       H  0.60411876  0.50875153  0.28256985     0.12900
C2686       C  0.64254017  0.52252121  0.25184667     0.62400
F2687       F  0.71054767  0.93968863  0.32378446    -0.22800
F2688       F  0.66326220  0.42400664  0.32240996    -0.20100
F2689       F  0.66949369  0.96487762  0.34121904    -0.19800
F2690       F  0.61124606  0.51142575  0.24744309    -0.19800
F2691       F  0.66368345  0.02179603  0.23907319    -0.20100
F2692       F  0.64050878  0.55641590  0.25331489    -0.22800
C2693       C  0.72672991  0.09974990  0.23197162    -0.05700
C2694       C  0.75075999  0.07393284  0.22905841     0.00300
C2695       C  0.77631322  0.07875743  0.21456231    -0.08300
C2696       C  0.77564739  0.10786706  0.20376539    -0.05700
C2697       C  0.75114935  0.13249392  0.20652545     0.00300
C2698       C  0.72642804  0.12874106  0.22104084    -0.08200
C2699       C  0.69957421  0.15514295  0.22503579     0.62200
H2700       H  0.70720409  0.09779954  0.24257052     0.12900
H2701       H  0.79443601  0.11097122  0.19247924     0.12900
C2702       C  0.80489949  0.05505444  0.20865900     0.62400
F2703       F  0.68171392  0.14937843  0.24203370    -0.22800
F2704       F  0.67749924  0.15587766  0.20976063    -0.20100
F2705       F  0.71373853  0.18557394  0.22702718    -0.19800
F2706       F  0.80784134  0.02702571  0.21948000    -0.19800
F2707       F  0.83460978  0.07119895  0.21018530    -0.20100
F2708       F  0.80099993  0.04557386  0.18936737    -0.22800
C2709       C  0.76800030  0.44601153  0.20882462    -0.05700
C2710       C  0.74529418  0.44925179  0.22457807     0.00300
C2711       C  0.72479223  0.42219541  0.22908125    -0.08300
C2712       C  0.72769315  0.39357527  0.21737968    -0.05700
C2713       C  0.74993539  0.39079581  0.20156072     0.00300
C2714       C  0.77078797  0.41734641  0.19717874    -0.08200
C2715       C  0.79526309  0.41614615  0.18004583     0.62200
H2716       H  0.78384923  0.46639704  0.20568727     0.12900
H2717       H  0.71244177  0.37271456  0.22054867     0.12900
C2718       C  0.69893845  0.42282026  0.24545142     0.62400
F2719       F  0.81006571  0.44607158  0.17723703    -0.22800
F2720       F  0.77900478  0.40813427  0.16303684    -0.20100
F2721       F  0.82023202  0.39300872  0.18343301    -0.19800
F2722       F  0.68112627  0.45210459  0.24550270    -0.19800
F2723       F  0.71407948  0.41830719  0.26321801    -0.20100
F2724       F  0.67629897  0.39806061  0.24322087    -0.22800
C2725       C  0.74764674  0.54201773  0.23857356     0.86600
C2726       C  0.77822319  0.53501857  0.25113971    -0.53600
C2727       C  0.77850510  0.00673294  0.26331552     0.09500
C2728       C  0.74733436  0.98630602  0.25975048     0.20500
C2729       C  0.74389123  0.51116022  0.22543899    -0.54300
C2730       C  0.74522421  0.98203012  0.23753345     0.09600
C2731       C  0.71835845  0.53934301  0.25335665    -0.53900
C2732       C  0.71743482  0.00953981  0.26481442     0.10200
H2733       H  0.79840975  0.55204544  0.25254587     0.14700
H2734       H  0.74815383  0.96286987  0.26771010     0.00500
H2735       H  0.74415591  0.01228451  0.21195942     0.15000
H2736       H  0.69945306  0.55799298  0.25620140     0.14800
N2737       N  0.95469507  0.76135924  0.00049079    -0.36500
N2738       N  0.50579139  0.76188810  0.97113750    -0.57000
N2739       N  0.55196167  0.76226017  0.00341855    -0.36500
N2740       N  0.49673836  0.76512933  0.03076978    -0.57000
C2741       C  0.93659460  0.76625366  0.98428843     0.27100
C2742       C  0.93473500  0.76897464  0.01600998     0.27100
C2743       C  0.57289936  0.76823950  0.98840829     0.27100
C2744       C  0.56805920  0.76925330  0.02005330     0.27100
C2745       C  0.98164451  0.75603862  0.95965918     0.35700
C2746       C  0.53456850  0.75565877  0.96127266     0.35700
C2747       C  0.97633414  0.75973906  0.04192785     0.35700
C2748       C  0.52170645  0.75977276  0.04340706     0.35700
C2749       C  0.90457307  0.77663315  0.98953578    -0.21800
C2750       C  0.90339240  0.77834333  0.00960792    -0.21800
C2751       C  0.60286948  0.77894755  0.99555302    -0.21800
C2752       C  0.59982936  0.77951733  0.01560247    -0.21800
C2753       C  0.99329233  0.74697351  0.94116933    -0.22800
C2754       C  0.52820882  0.74497104  0.94240748    -0.22800
C2755       C  0.98530960  0.75022571  0.06052884    -0.22800
C2756       C  0.50911303  0.75160224  0.06158344    -0.22800
C2757       C  0.94786301  0.76004376  0.96496222    -0.18200
C2758       C  0.94343705  0.76523170  0.03575102    -0.18200
C2759       C  0.55565677  0.76391632  0.03906719    -0.18200
C2760       C  0.56649978  0.76151167  0.96860545    -0.18200
H2761       H  0.88413215  0.78217295  0.97990880     0.14700
H2762       H  0.88179873  0.78527032  0.01848191     0.14700
H2763       H  0.62489084  0.78490457  0.98720864     0.14700
H2764       H  0.61901918  0.78605927  0.02574786     0.14700
H2765       H  0.97884061  0.73998603  0.92864361     0.13000
H2766       H  0.54610234  0.73857869  0.93093975     0.13000
H2767       H  0.96901392  0.74443839  0.07264084     0.13000
H2768       H  0.52287172  0.74638443  0.07470242     0.13000
H2769       H  0.97797610  0.74979949  0.00094749     0.26300
H2770       H  0.52980139  0.74992489  0.00243925     0.26300
C2771       C  0.70695480  0.99848096  0.74163889     0.86600
C2772       C  0.71234515  0.52936515  0.75555711    -0.53600
C2773       C  0.74220301  0.52927419  0.76479272     0.09500
C2774       C  0.76335840  0.99655735  0.76042673     0.20500
C2775       C  0.73776870  0.99258686  0.72846417    -0.54300
C2776       C  0.76734037  0.99205813  0.73804944     0.09600
C2777       C  0.71022026  0.97038942  0.75652034    -0.53900
C2778       C  0.73930172  0.96940147  0.76642665     0.10200
H2779       H  0.69378405  0.54902625  0.75764350     0.14700
H2780       H  0.78702045  0.99615507  0.76848138     0.00500
H2781       H  0.73640029  0.99048999  0.71266104     0.15000
H2782       H  0.69304218  0.95072116  0.75846723     0.14800
C2783       C  0.53781806  0.74733504  0.76321702     0.86600
C2784       C  0.53267407  0.77955496  0.75209999    -0.53600
C2785       C  0.00338645  0.78084533  0.73859587     0.09500
C2786       C  0.98414016  0.74876141  0.74063039     0.20500
C2787       C  0.50398887  0.74420287  0.77414310    -0.54300
C2788       C  0.97819804  0.74500245  0.76276336     0.09600
C2789       C  0.53745863  0.71964069  0.74763466    -0.53900
C2790       C  0.00952740  0.72092255  0.73526382     0.10200
H2791       H  0.54959316  0.79976229  0.75333464     0.14700
H2792       H  0.96103843  0.74819001  0.73195918     0.00500
H2793       H  0.00605510  0.74364726  0.78900268     0.15000
H2794       H  0.55618189  0.69993874  0.74691479     0.14800
N2795       N  0.73873694  0.95663558  0.00072942    -0.36500
N2796       N  0.74934056  0.50339158  0.03097409    -0.57000
N2797       N  0.75585304  0.55330550  0.00192718    -0.36500
N2798       N  0.76359725  0.50210518  0.97161826    -0.57000
C2799       C  0.74308607  0.93796879  0.01677513     0.27100
C2800       C  0.74702350  0.93756291  0.98497337     0.27100
C2801       C  0.75935161  0.57166173  0.01837037     0.27100
C2802       C  0.76747314  0.57092256  0.98681661     0.27100
C2803       C  0.73406527  0.98174524  0.04204730     0.35700
C2804       C  0.74165878  0.53009104  0.04229033     0.35700
C2805       C  0.74162392  0.98018863  0.95948733     0.35700
C2806       C  0.76056003  0.52907736  0.96041655     0.35700
C2807       C  0.75362908  0.90652007  0.01111800    -0.21800
C2808       C  0.75634765  0.90632732  0.99105876    -0.21800
C2809       C  0.77311164  0.60143852  0.01361727    -0.21800
C2810       C  0.77809300  0.60103141  0.99367073    -0.21800
C2811       C  0.72645839  0.99291656  0.06082488    -0.22800
C2812       C  0.72908606  0.52046031  0.06019700    -0.22800
C2813       C  0.73482644  0.99065670  0.94074671    -0.22800
C2814       C  0.75394567  0.51998716  0.94129989    -0.22800
C2815       C  0.73674421  0.94830701  0.03632600    -0.18200
C2816       C  0.74415503  0.94699885  0.96523082    -0.18200
C2817       C  0.76614315  0.56157911  0.96688266    -0.18200
C2818       C  0.74884624  0.56280475  0.03735566    -0.18200
H2819       H  0.75880033  0.88580903  0.02045436     0.14700
H2820       H  0.76378607  0.88538914  0.98196133     0.14700
H2821       H  0.77851987  0.62156181  0.02345355     0.14700
H2822       H  0.78805772  0.62079339  0.98514451     0.14700
H2823       H  0.71979109  0.97842902  0.07335861     0.13000
H2824       H  0.72142687  0.53609107  0.07244421     0.13000
H2825       H  0.72857720  0.97562066  0.92824510     0.13000
H2826       H  0.75084114  0.53593363  0.92889415     0.13000
H2827       H  0.72753566  0.97994176  0.00040066     0.26300
H2828       H  0.74275579  0.53173670  0.00072738     0.26300
C2829       C  0.85567776  0.75347884  0.90121738     0.42600
N2830       N  0.82816478  0.73763954  0.87633547     0.01500
C2831       C  0.72421813  0.83778039  0.82148002    -0.06400
H2832       H  0.69998794  0.84426186  0.89442173     0.07000
C2833       C  0.67481378  0.72515598  0.89593972    -0.06800
Co2834     Co  0.79802689  0.79472321  0.85530152     0.74200
N2835       N  0.73794877  0.81945707  0.87716036    -0.25900
Co2836     Co  0.71240622  0.79199157  0.85669374     0.74100
C2837       C  0.66213357  0.75579980  0.90515959     0.42700
N2838       N  0.74694338  0.68422398  0.87995889     0.01100
N2839       N  0.68964778  0.76680408  0.87907449     0.01200
N2840       N  0.78029640  0.84041023  0.82161507    -0.46800
H2841       H  0.84434026  0.80797429  0.89455833     0.06900
N2842       N  0.77065017  0.82012683  0.87718970     0.01500
N2843       N  0.68771530  0.76297379  0.83630537     0.01200
C2844       C  0.65627995  0.74633981  0.81323163     0.42800
N2845       N  0.77962553  0.68491132  0.87854910    -0.25400
C2846       C  0.84237759  0.77893466  0.81863819    -0.06300
N2847       N  0.84612636  0.72671588  0.89111001    -0.46500
N2848       N  0.66764040  0.77340120  0.82234334    -0.46700
C2849       C  0.85604000  0.74940220  0.80864294     0.42600
N2850       N  0.76943054  0.81903494  0.83449719     0.01500
N2851       N  0.77688681  0.68068371  0.83622418    -0.25400
N2852       N  0.82557133  0.76995781  0.87607682    -0.25900
N2853       N  0.74418220  0.67960228  0.83759206     0.01100
H2854       H  0.81349078  0.64959168  0.82116374     0.07000
H2855       H  0.66623711  0.69210605  0.82091186     0.07000
N2856       N  0.73673521  0.81720601  0.83477730    -0.26000
N2857       N  0.69159457  0.73453132  0.87999336    -0.25600
N2858       N  0.82576434  0.73555724  0.83339132     0.01500
C2859       C  0.75512283  0.85102572  0.90162757     0.42900
C2860       C  0.79275028  0.66799005  0.89332879    -0.06800
N2861       N  0.68971279  0.73058882  0.83721663    -0.25600
H2862       H  0.67111354  0.70000063  0.90009532     0.07000
N2863       N  0.78198194  0.83872529  0.89157125    -0.46800
H2864       H  0.81899222  0.66382558  0.89560696     0.07000
C2865       C  0.75767677  0.64014669  0.81769262     0.42700
C2866       C  0.84231986  0.78216324  0.89108499    -0.06300
Co2867     Co  0.80331251  0.70923722  0.85595385     0.73800
N2868       N  0.73674745  0.66730319  0.89522105    -0.46500
C2869       C  0.75318589  0.85259995  0.81256247     0.43000
N2870       N  0.84494380  0.72354273  0.81895864    -0.46500
Co2871     Co  0.71751192  0.70680070  0.85872891     0.73900
C2872       C  0.67074648  0.71793829  0.82318983    -0.06800
C2873       C  0.72595822  0.83845567  0.89182208    -0.06400
N2874       N  0.82392166  0.76796899  0.83348653    -0.25900
N2875       N  0.67250913  0.78038081  0.89381336    -0.46700
H2876       H  0.69814720  0.84391832  0.81964424     0.07000
C2877       C  0.78773796  0.65683007  0.82375734    -0.06800
Cl2878     Cl  0.75780932  0.75065763  0.85654535    -0.49800
C2879       C  0.76428846  0.65666983  0.90462146     0.42700
H2880       H  0.84811409  0.80437984  0.81674890     0.06900
N2881       N  0.73181907  0.65591771  0.82673402    -0.46500
C2882       C  0.85890713  0.75949755  0.18610581     0.42600
N2883       N  0.82100088  0.74579933  0.16605566     0.01500
C2884       C  0.71508821  0.84579496  0.11253549    -0.06400
H2885       H  0.69386258  0.85278572  0.18770607     0.07000
C2886       C  0.66014165  0.72939464  0.18214935    -0.06800
Co2887     Co  0.78989769  0.80392196  0.14638271     0.74200
N2888       N  0.73029139  0.82659332  0.16971189    -0.25900
Co2889     Co  0.70364034  0.80130962  0.14855566     0.74100
C2890       C  0.64455563  0.75835080  0.19153108     0.42700
N2891       N  0.73717148  0.69215113  0.16771835     0.01100
N2892       N  0.67950211  0.77370704  0.16972641     0.01200
N2893       N  0.77098134  0.84686268  0.11125428    -0.46800
H2894       H  0.84790676  0.81470874  0.18146206     0.06900
N2895       N  0.76302924  0.82742692  0.16876819     0.01500
N2896       N  0.67881763  0.77473855  0.12726236     0.01200
C2897       C  0.64657804  0.76135534  0.10389551     0.42800
N2898       N  0.76991825  0.69337151  0.16732537    -0.25400
C2899       C  0.83230023  0.79087444  0.10908492    -0.06300
N2900       N  0.84418299  0.73362709  0.17768632    -0.46500
N2901       N  0.65855840  0.78702162  0.11399784    -0.46700
C2902       C  0.84558408  0.76202876  0.09836706     0.42600
N2903       N  0.76048390  0.82893258  0.12604502     0.01500
N2904       N  0.76898033  0.69328183  0.12443099    -0.25400
N2905       N  0.81938216  0.77823773  0.16637804    -0.25900
N2906       N  0.73638202  0.69124044  0.12483500     0.01100
H2907       H  0.80725103  0.67330191  0.10558283     0.07000
H2908       H  0.65759529  0.70602096  0.10876611     0.07000
N2909       N  0.72783765  0.82788947  0.12705984    -0.26000
N2910       N  0.68135403  0.74128225  0.16888844    -0.25600
N2911       N  0.81766405  0.74655475  0.12351024     0.01500
C2912       C  0.74981234  0.86026640  0.19254491     0.42900
C2913       C  0.78161457  0.67580443  0.18232379    -0.06800
N2914       N  0.68112835  0.74234865  0.12648519    -0.25600
H2915       H  0.65407197  0.70383344  0.18368270     0.07000
N2916       N  0.77555119  0.84704581  0.18211725    -0.46800
H2917       H  0.80759269  0.67108140  0.18536050     0.07000
C2918       C  0.75267702  0.65953177  0.10081962     0.42700
C2919       C  0.84233853  0.78921814  0.17879331    -0.06300
Co2920     Co  0.79482666  0.71916644  0.14537341     0.73800
N2921       N  0.72566387  0.67445572  0.18229239    -0.46500
C2922       C  0.74380288  0.85833262  0.10180719     0.43000
N2923       N  0.83572749  0.73544111  0.10837102    -0.46500
Co2924     Co  0.70859099  0.71614942  0.14691409     0.73900
C2925       C  0.66173835  0.73158008  0.11216764    -0.06800
C2926       C  0.71961228  0.84638198  0.18442908    -0.06400
N2927       N  0.81534685  0.77888713  0.12414104    -0.25900
N2928       N  0.65741609  0.78494736  0.18292178    -0.46700
H2929       H  0.68887477  0.84986107  0.11015428     0.07000
C2930       C  0.78133169  0.67497153  0.10956704    -0.06800
Cl2931     Cl  0.74924205  0.76012957  0.14687019    -0.49800
C2932       C  0.75210212  0.66355472  0.19248186     0.42700
H2933       H  0.83579565  0.81667797  0.10666339     0.06900
N2934       N  0.72551606  0.67127392  0.11093492    -0.46500
C2935       C  0.58664566  0.99930781  0.69468114     0.42600
N2936       N  0.55944090  0.98365338  0.66959954     0.01500
C2937       C  0.96102522  0.58646086  0.61023360    -0.06400
H2938       H  0.93255297  0.59693802  0.68156127     0.07000
C2939       C  0.90171394  0.96724772  0.68081493    -0.06800
Co2940     Co  0.53148445  0.53971280  0.64717520     0.74200
N2941       N  0.97039791  0.56682503  0.66731853    -0.25900
Co2942     Co  0.94588164  0.54165783  0.64533674     0.74100
C2943       C  0.88711530  0.99657371  0.69041252     0.42700
N2944       N  0.97488640  0.92567145  0.66517173     0.01100
N2945       N  0.92042384  0.51363856  0.66570217     0.01200
N2946       N  0.51772679  0.58103077  0.61071227    -0.46800
H2947       H  0.57740557  0.55305456  0.68677967     0.06900
N2948       N  0.50239191  0.56620429  0.66757398     0.01500
N2949       N  0.92268116  0.51649000  0.62295377     0.01200
C2950       C  0.89774200  0.00075110  0.59836829     0.42800
N2951       N  0.51104937  0.92919770  0.66830141    -0.25400
C2952       C  0.58056044  0.52382678  0.61289474    -0.06300
N2953       N  0.57742546  0.97264136  0.68430992    -0.46500
N2954       N  0.90745418  0.52970316  0.60779194    -0.46700
C2955       C  0.59807242  0.99696781  0.60433200     0.42600
N2956       N  0.50533911  0.56325991  0.62500929     0.01500
N2957       N  0.51390386  0.92958928  0.62525018    -0.25400
N2958       N  0.55617057  0.51491288  0.66925498    -0.25900
N2959       N  0.97590066  0.92949011  0.62269108     0.01100
H2960       H  0.55205908  0.90729979  0.60670267     0.07000
H2961       H  0.90258430  0.94539508  0.60485188     0.07000
N2962       N  0.97227332  0.56811102  0.62491845    -0.26000
N2963       N  0.92182899  0.97868894  0.66688492    -0.25600
N2964       N  0.56386225  0.98259449  0.62692669     0.01500
C2965       C  0.98756131  0.60311122  0.68946694     0.42900
C2966       C  0.52210357  0.90889696  0.68224675    -0.06800
N2967       N  0.92284172  0.98094057  0.62445994    -0.25600
H2968       H  0.89575709  0.94173186  0.68274873     0.07000
N2969       N  0.51345927  0.58848810  0.67993693    -0.46800
H2970       H  0.54790381  0.90297829  0.68514135     0.07000
C2971       C  0.99000419  0.90239154  0.59658506     0.42700
C2972       C  0.57338285  0.52723844  0.68407175    -0.06300
Co2973     Co  0.53774699  0.95563511  0.64753248     0.73800
N2974       N  0.96276280  0.90335530  0.67708793    -0.46500
C2975       C  0.99081559  0.59839989  0.60052679     0.43000
N2976       N  0.58509699  0.97086160  0.61343890    -0.46500
Co2977     Co  0.94825882  0.95325933  0.64490675     0.73900
C2978       C  0.90693177  0.97072207  0.60858864    -0.06800
C2979       C  0.95826880  0.58879444  0.68056494    -0.06400
N2980       N  0.56016559  0.51296973  0.62683548    -0.25900
N2981       N  0.89921075  0.52526299  0.67918566    -0.46700
H2982       H  0.93515125  0.59046803  0.60671136     0.07000
C2983       C  0.52605667  0.91247366  0.60965335    -0.06800
Cl2984     Cl  0.98958867  0.99645153  0.64627359    -0.49800
C2985       C  0.98920940  0.88881865  0.68567149     0.42700
H2986       H  0.58515303  0.54939267  0.61012409     0.06900
N2987       N  0.96380452  0.91312141  0.60764306    -0.46500
C2988       C  0.00075139  0.59021555  0.31229597     0.42600
N2989       N  0.98448827  0.55665392  0.33398704     0.01500
C2990       C  0.57754621  0.95349634  0.39436810    -0.06400
H2991       H  0.59695903  0.92908130  0.32181646     0.07000
C2992       C  0.96632408  0.90886093  0.31725998    -0.06800
Co2993     Co  0.54414615  0.52566548  0.35705814     0.74200
N2994       N  0.56852046  0.96708623  0.33730526    -0.25900
Co2995     Co  0.53711087  0.94276491  0.35639582     0.74100
C2996       C  0.99548838  0.89196526  0.30856550     0.42700
N2997       N  0.92903644  0.98181011  0.33268997     0.01100
N2998       N  0.51181382  0.92117443  0.33316619     0.01200
N2999       N  0.57786185  0.50620107  0.39527302    -0.46800
H3000       H  0.56446413  0.57620324  0.32007892     0.06900
N3001       N  0.57144341  0.49707906  0.33690715     0.01500
N3002       N  0.50532891  0.91932869  0.37591601     0.01200
C3003       C  0.98760064  0.88725919  0.39771413     0.42800
N3004       N  0.92841889  0.50973232  0.33265561    -0.25400
C3005       C  0.52802055  0.57165430  0.39227850    -0.06300
N3006       N  0.97364036  0.57831352  0.32119188    -0.46500
N3007       N  0.51379382  0.89942947  0.39033375    -0.46700
C3008       C  0.99750809  0.58305210  0.40213676     0.42600
N3009       N  0.56283690  0.49610512  0.37929754     0.01500
N3010       N  0.92682026  0.50897262  0.37492579    -0.25400
N3011       N  0.52333796  0.55394529  0.33496490    -0.25900
N3012       N  0.92516389  0.98007844  0.37467943     0.01100
H3013       H  0.90301363  0.54681555  0.39276782     0.07000
H3014       H  0.93324004  0.90400417  0.39190159     0.07000
N3015       N  0.56084805  0.96625038  0.37936758    -0.26000
N3016       N  0.97783594  0.92602730  0.33232436    -0.25600
N3017       N  0.98221528  0.55583845  0.37676186     0.01500
C3018       C  0.61036133  0.98354575  0.31878816     0.42900
C3019       C  0.90647422  0.52237980  0.32002829    -0.06800
N3020       N  0.97325856  0.92314113  0.37483537    -0.25600
H3021       H  0.94035214  0.90666930  0.31375808     0.07000
N3022       N  0.59538677  0.50805667  0.32551453    -0.46800
H3023       H  0.90117076  0.54827881  0.31802335     0.07000
C3024       C  0.89168791  0.99630780  0.39745826     0.42700
C3025       C  0.53802060  0.57266475  0.32159081    -0.06300
Co3026     Co  0.95515524  0.53338897  0.35456381     0.73800
N3027       N  0.90629146  0.97192511  0.32032752    -0.46500
C3028       C  0.58950750  0.98194072  0.40530293     0.43000
N3029       N  0.97069133  0.57383921  0.39180882    -0.46500
Co3030     Co  0.95096422  0.95229872  0.35364086     0.73900
C3031       C  0.95951751  0.90473292  0.38872819    -0.06800
C3032       C  0.59229699  0.95483946  0.32511086    -0.06400
N3033       N  0.51699069  0.55405361  0.37721422    -0.25900
N3034       N  0.52422113  0.90097358  0.31935413    -0.46700
H3035       H  0.58235123  0.92759108  0.39628072     0.07000
C3036       C  0.90627056  0.52112971  0.38890773    -0.06800
Cl3037     Cl  0.99698499  0.98973463  0.35600486    -0.49800
C3038       C  0.89300023  0.99911455  0.31221671     0.42700
H3039       H  0.55390691  0.57476171  0.39538528     0.06900
N3040       N  0.90377706  0.96936981  0.38778731    -0.46500
N3041       N  0.49029432  0.79352149  0.50103640    -0.36500
N3042       N  0.48923409  0.74188432  0.47102607    -0.57000
N3043       N  0.49211451  0.69223478  0.50087761    -0.36500
N3044       N  0.49056950  0.74395678  0.53091461    -0.57000
C3045       C  0.48252070  0.81129081  0.48507880     0.27100
C3046       C  0.48215343  0.81220427  0.51701090     0.27100
C3047       C  0.48494800  0.67337814  0.48513062     0.27100
C3048       C  0.48602516  0.67439902  0.51700241     0.27100
C3049       C  0.49514457  0.76813983  0.45974149     0.35700
C3050       C  0.49556570  0.71490869  0.45969000     0.35700
C3051       C  0.49614203  0.77078256  0.54212792     0.35700
C3052       C  0.49774615  0.71753420  0.54196783     0.35700
C3053       C  0.46959460  0.84180968  0.49093400    -0.21800
C3054       C  0.46924008  0.84234916  0.51108720    -0.21800
C3055       C  0.47464280  0.64294495  0.49132587    -0.21800
C3056       C  0.47540819  0.64355342  0.51144859    -0.21800
C3057       C  0.50519109  0.75779115  0.44115028    -0.22800
C3058       C  0.50566300  0.72406847  0.44115694    -0.22800
C3059       C  0.50703232  0.76134160  0.56038431    -0.22800
C3060       C  0.50789268  0.72759811  0.56031761    -0.22800
C3061       C  0.48881601  0.80127666  0.46544776    -0.18200
C3062       C  0.48819820  0.80346696  0.53668998    -0.18200
C3063       C  0.49167309  0.68466743  0.53648831    -0.18200
C3064       C  0.48953428  0.68229499  0.46535424    -0.18200
H3065       H  0.46155020  0.86172288  0.48164626     0.14700
H3066       H  0.46080691  0.86277828  0.52031825     0.14700
H3067       H  0.46763308  0.62232783  0.48228449     0.14700
H3068       H  0.46910237  0.62347922  0.52090446     0.14700
H3069       H  0.51108118  0.77296558  0.42877535     0.13000
H3070       H  0.51184097  0.70812506  0.42878840     0.13000
H3071       H  0.51291144  0.77708015  0.57264236     0.13000
H3072       H  0.51443561  0.71223885  0.57253931     0.13000
H3073       H  0.50394281  0.77148227  0.50092629     0.26300
H3074       H  0.50395621  0.71457729  0.50063359     0.26300
N3075       N  0.69654725  0.99095093  0.50204526    -0.36500
N3076       N  0.74800192  0.00075243  0.53050006    -0.57000
N3077       N  0.79830688  0.99396830  0.49988794    -0.36500
N3078       N  0.74669685  0.98623875  0.47145584    -0.57000
C3079       C  0.67738335  0.99773534  0.51804460     0.27100
C3080       C  0.67688888  0.99381654  0.48624306     0.27100
C3081       C  0.81583533  0.00769349  0.51437046     0.27100
C3082       C  0.81524426  0.99880709  0.48308605     0.27100
C3083       C  0.72227740  0.99521781  0.54277442     0.35700
C3084       C  0.77573480  0.99880824  0.54133781     0.35700
C3085       C  0.71979461  0.97898058  0.46090765     0.35700
C3086       C  0.77344541  0.97781078  0.46026872     0.35700
C3087       C  0.64481736  0.00365007  0.51241147    -0.21800
C3088       C  0.64462976  0.00187998  0.49232838    -0.21800
C3089       C  0.84441284  0.02119384  0.50676439    -0.21800
C3090       C  0.84395836  0.01573097  0.48690136    -0.21800
C3091       C  0.73379874  0.99028277  0.56155501    -0.22800
C3092       C  0.76768226  0.99225377  0.56059177    -0.22800
C3093       C  0.72943959  0.96561634  0.44291456    -0.22800
C3094       C  0.76354251  0.96480266  0.44252347    -0.22800
C3095       C  0.68838360  0.99699703  0.53758145    -0.18200
C3096       C  0.68680004  0.98707117  0.46663299    -0.18200
C3097       C  0.80609591  0.98674016  0.46463617    -0.18200
C3098       C  0.80786209  0.00578417  0.53437875    -0.18200
H3099       H  0.62332928  0.00859861  0.52177296     0.14700
H3100       H  0.62297817  0.00523757  0.48329874     0.14700
H3101       H  0.86368445  0.03338320  0.51473779     0.14700
H3102       H  0.86285334  0.02288925  0.47650757     0.14700
H3103       H  0.71940923  0.98615016  0.57471051     0.13000
H3104       H  0.78437089  0.98982699  0.57277252     0.13000
H3105       H  0.71356459  0.95815918  0.43111771     0.13000
H3106       H  0.77923545  0.95689696  0.43028519     0.13000
H3107       H  0.72072215  0.98157664  0.50216284     0.26300
H3108       H  0.77817651  0.97871456  0.50163265     0.26300
C3109       C  0.00016191  0.70867019  0.26465622     0.86600
C3110       C  0.53406425  0.71587527  0.25209807    -0.53600
C3111       C  0.53021815  0.74360460  0.24142700     0.09500
C3112       C  0.99525707  0.76238931  0.24407910     0.20500
C3113       C  0.99554913  0.74087014  0.27689323    -0.54300
C3114       C  0.99229680  0.76868021  0.26613583     0.09600
C3115       C  0.97135915  0.70913763  0.25022026    -0.53900
C3116       C  0.96742530  0.73760820  0.24012112     0.10200
H3117       H  0.55694007  0.70104712  0.25181827     0.14700
H3118       H  0.99340041  0.78530248  0.23549302     0.00500
H3119       H  0.99756301  0.74237898  0.29265443     0.15000
H3120       H  0.95458500  0.68881724  0.24871976     0.14800
C3121       C  0.96608890  0.84249412  0.29765281    -0.05700
C3122       C  0.99456580  0.86165005  0.29633390     0.00300
C3123       C  0.52095872  0.85256015  0.28133398    -0.08300
C3124       C  0.51761968  0.82243238  0.27124072    -0.05700
C3125       C  0.99068029  0.80183818  0.27529753     0.00300
C3126       C  0.96361128  0.81273732  0.28732226    -0.08200
C3127       C  0.93176280  0.79374561  0.28871477     0.62200
H3128       H  0.94594929  0.85034795  0.30737726     0.12900
H3129       H  0.53547972  0.81512327  0.25993756     0.12900
C3130       C  0.54879893  0.87514036  0.27568513     0.62400
F3131       F  0.90714204  0.81075465  0.29931578    -0.22800
F3132       F  0.93758022  0.76403660  0.29775232    -0.20100
F3133       F  0.91998555  0.78841801  0.27013361    -0.19800
F3134       F  0.57036585  0.87836085  0.29107123    -0.19800
F3135       F  0.53567072  0.90573505  0.27101185    -0.20100
F3136       F  0.56690234  0.86310619  0.25965239    -0.22800
C3137       C  0.50889398  0.61602444  0.27975039    -0.05700
C3138       C  0.00065155  0.62049519  0.30076201     0.00300
C3139       C  0.98510217  0.65009438  0.30746400    -0.08300
C3140       C  0.98514323  0.67735106  0.29514116    -0.05700
C3141       C  0.00116758  0.67677259  0.27659329     0.00300
C3142       C  0.50930958  0.64346497  0.26746920    -0.08200
C3143       C  0.50872420  0.63546781  0.24565372     0.62200
H3144       H  0.50616061  0.59166164  0.27345708     0.12900
H3145       H  0.97107668  0.69895572  0.29990185     0.12900
C3146       C  0.96901837  0.65330816  0.32768699     0.62400
F3147       F  0.47706127  0.62657762  0.24058209    -0.22800
F3148       F  0.53039844  0.60919148  0.24152012    -0.20100
F3149       F  0.51834779  0.66078220  0.23390364    -0.19800
F3150       F  0.99104741  0.64234814  0.34166613    -0.19800
F3151       F  0.94062871  0.63498440  0.32849393    -0.20100
F3152       F  0.96001840  0.68556978  0.33234978    -0.22800
C3153       C  0.97115381  0.63026889  0.41994494    -0.05700
C3154       C  0.99640950  0.60582542  0.41931652     0.00300
C3155       C  0.51957794  0.60892024  0.43443734    -0.08300
C3156       C  0.51677126  0.63372968  0.44893495    -0.05700
C3157       C  0.48965300  0.65598150  0.44989077     0.00300
C3158       C  0.96866435  0.65392462  0.43505009    -0.08200
C3159       C  0.93981321  0.67866913  0.43413523     0.62200
H3160       H  0.95322777  0.63127780  0.40827537     0.12900
H3161       H  0.53590518  0.63583619  0.45982764     0.12900
C3162       C  0.54771142  0.58351819  0.43625984     0.62400
F3163       F  0.91045904  0.66204356  0.43234922    -0.22800
F3164       F  0.94393603  0.69813035  0.41791149    -0.20100
F3165       F  0.93668480  0.69878524  0.45048485    -0.19800
F3166       F  0.57493879  0.59303551  0.42540933    -0.19800
F3167       F  0.53795424  0.55273314  0.43022693    -0.20100
F3168       F  0.55739109  0.58062989  0.45550196    -0.22800
C3169       C  0.51288213  0.86541876  0.42803504    -0.05700
C3170       C  0.98826353  0.86352276  0.41399650     0.00300
C3171       C  0.96213048  0.84177977  0.41835927    -0.08300
C3172       C  0.96500822  0.82190309  0.43488341    -0.05700
C3173       C  0.99379221  0.82121144  0.44606043     0.00300
C3174       C  0.51503643  0.84481359  0.44441320    -0.08200
C3175       C  0.54678953  0.84253220  0.45607862     0.62200
H3176       H  0.53387785  0.88021037  0.42419566     0.12900
H3177       H  0.94495617  0.80602955  0.43901105     0.12900
C3178       C  0.93188799  0.83770542  0.40563605     0.62400
F3179       F  0.57241318  0.85856465  0.44702631    -0.22800
F3180       F  0.55702568  0.81007436  0.45810478    -0.20100
F3181       F  0.54128362  0.85650879  0.47438908    -0.19800
F3182       F  0.94035584  0.83960016  0.38604938    -0.19800
F3183       F  0.90808227  0.86159207  0.41055192    -0.20100
F3184       F  0.91803644  0.80726451  0.40831081    -0.22800
C3185       C  0.62885826  0.50650340  0.42497985    -0.05700
C3186       C  0.61309213  0.98287550  0.42178048     0.00300
C3187       C  0.61470656  0.95873926  0.43656129    -0.08300
C3188       C  0.63953983  0.96081069  0.45068096    -0.05700
C3189       C  0.66104820  0.98715171  0.45132423     0.00300
C3190       C  0.65245448  0.50821215  0.43987222    -0.08200
C3191       C  0.67345175  0.53848230  0.44192435     0.62200
H3192       H  0.62725822  0.52605557  0.41444416     0.12900
H3193       H  0.64233483  0.94176815  0.46149968     0.12900
C3194       C  0.59059636  0.93096391  0.43808734     0.62400
F3195       F  0.66378259  0.56289526  0.42913393    -0.22800
F3196       F  0.70648515  0.53043301  0.43810256    -0.20100
F3197       F  0.67559184  0.05718320  0.45738017    -0.19800
F3198       F  0.59490097  0.40209786  0.42622075    -0.19800
F3199       F  0.55875509  0.94144570  0.43340510    -0.20100
F3200       F  0.58917686  0.91923730  0.45696372    -0.22800
C3201       C  0.87568081  0.96947725  0.42780838    -0.05700
C3202       C  0.86991622  0.99524592  0.41475063     0.00300
C3203       C  0.84321713  0.01814508  0.41817499    -0.08300
C3204       C  0.82393716  0.01492112  0.43513787    -0.05700
C3205       C  0.82976334  0.98925697  0.44813941     0.00300
C3206       C  0.85586630  0.96599406  0.44459503    -0.08200
C3207       C  0.85650519  0.43206583  0.45626018     0.62200
H3208       H  0.89323921  0.44838546  0.42427163     0.12900
H3209       H  0.80356943  0.03220686  0.43832915     0.12900
C3210       C  0.83379994  0.04508914  0.40393539     0.62400
F3211       F  0.88728273  0.91631410  0.45111120    -0.22800
F3212       F  0.83402383  0.92004010  0.46099926    -0.20100
F3213       F  0.86141738  0.44279217  0.47519039    -0.19800
F3214       F  0.83429755  0.03286657  0.38498792    -0.19800
F3215       F  0.84803008  0.56604715  0.40417646    -0.20100
F3216       F  0.80210991  0.05788590  0.40776473    -0.22800
C3217       C  0.62481133  0.52087021  0.57652185    -0.05700
C3218       C  0.62141808  0.99580901  0.58717799     0.00300
C3219       C  0.63920685  0.96685519  0.58076198    -0.08300
C3220       C  0.65798738  0.96789894  0.56332398    -0.05700
C3221       C  0.66333843  0.99748699  0.55371527     0.00300
C3222       C  0.64798177  0.52205257  0.56109737    -0.08200
C3223       C  0.65327094  0.55536408  0.55194269     0.62200
H3224       H  0.61074863  0.54312282  0.58026972     0.12900
H3225       H  0.67079577  0.94593092  0.55771396     0.12900
C3226       C  0.64130724  0.93587705  0.59288397     0.62400
F3227       F  0.65962184  0.57814441  0.56650190    -0.22800
F3228       F  0.64511381  0.06361968  0.53439001    -0.20100
F3229       F  0.67956948  0.55550563  0.53876925    -0.19800
F3230       F  0.61095925  0.92123987  0.59381367    -0.19800
F3231       F  0.64656701  0.44142159  0.61431445    -0.20100
F3232       F  0.66402909  0.91295579  0.58509663    -0.22800
C3233       C  0.85710766  0.03138183  0.57858051    -0.05700
C3234       C  0.87912386  0.00418959  0.58003096     0.00300
C3235       C  0.88164120  0.98095780  0.56437822    -0.08300
C3236       C  0.85854714  0.98332732  0.54930117    -0.05700
C3237       C  0.83481684  0.00907603  0.54871935     0.00300
C3238       C  0.83519472  0.03461737  0.56294730    -0.08200
C3239       C  0.81270379  0.06516366  0.56270662     0.62200
H3240       H  0.85614308  0.04987760  0.59013155     0.12900
H3241       H  0.85826131  0.96428154  0.53808634     0.12900
C3242       C  0.90766235  0.95324452  0.56307825     0.62400
F3243       F  0.83200600  0.09274536  0.56355191    -0.22800
F3244       F  0.79172088  0.06530525  0.57888292    -0.20100
F3245       F  0.79023912  0.56474710  0.54401641    -0.19800
F3246       F  0.89523576  0.92540470  0.57156398    -0.19800
F3247       F  0.94176510  0.47260635  0.56995816    -0.20100
F3248       F  0.92485434  0.45955227  0.54011904    -0.22800
C3249       C  0.96306242  0.64006975  0.57980835    -0.05700
C3250       C  0.99197330  0.62102212  0.58361431     0.00300
C3251       C  0.52193980  0.61968167  0.57170432    -0.08300
C3252       C  0.52011648  0.64194609  0.55614288    -0.05700
C3253       C  0.98965845  0.66453677  0.55188129     0.00300
C3254       C  0.96135853  0.66181059  0.56408315    -0.08200
C3255       C  0.92951446  0.68161149  0.56035932     0.62200
H3256       H  0.94169898  0.63830922  0.58943554     0.12900
H3257       H  0.54174643  0.64604763  0.54699798     0.12900
C3258       C  0.55437817  0.60082387  0.57506820     0.62400
F3259       F  0.90442733  0.67421281  0.57348547    -0.22800
F3260       F  0.91845476  0.67487460  0.54174261    -0.20100
F3261       F  0.93515497  0.71484908  0.56207636    -0.19800
F3262       F  0.54890627  0.56741776  0.57470109    -0.19800
F3263       F  0.56732024  0.60988463  0.59288122    -0.20100
F3264       F  0.57801738  0.60715762  0.56084124    -0.22800
C3265       C  0.96247387  0.85755688  0.57848043    -0.05700
C3266       C  0.98734301  0.88117942  0.57879510     0.00300
C3267       C  0.51418912  0.87913629  0.56510393    -0.08300
C3268       C  0.51098161  0.85462113  0.55059121    -0.05700
C3269       C  0.98482609  0.83399169  0.54801912     0.00300
C3270       C  0.95992248  0.83478804  0.56293248    -0.08200
C3271       C  0.93048547  0.81219192  0.56321643     0.62200
H3272       H  0.94482690  0.85672583  0.59056414     0.12900
H3273       H  0.52731122  0.85428080  0.53786917     0.12900
C3274       C  0.53832226  0.90635226  0.56153197     0.62400
F3275       F  0.90157589  0.83053760  0.56690563    -0.22800
F3276       F  0.93452693  0.78950847  0.57790259    -0.20100
F3277       F  0.92648855  0.79559486  0.54570023    -0.19800
F3278       F  0.56634930  0.90048532  0.57230157    -0.19800
F3279       F  0.02114238  0.93990059  0.56910471    -0.20100
F3280       F  0.54794210  0.90773381  0.54206161    -0.22800
C3281       C  0.61783631  0.76093131  0.22409639    -0.05700
C3282       C  0.61407863  0.75901319  0.20386304     0.00300
C3283       C  0.58182620  0.75694777  0.19598651    -0.08300
C3284       C  0.55425848  0.75522861  0.20888131    -0.05700
C3285       C  0.55824585  0.75520242  0.22920522     0.00300
C3286       C  0.59046936  0.75957057  0.23699186    -0.08200
C3287       C  0.59778596  0.76244120  0.25866361     0.62200
H3288       H  0.64261133  0.76305414  0.22994211     0.12900
H3289       H  0.52967728  0.75147827  0.20316360     0.12900
C3290       C  0.57679393  0.75485944  0.17410205     0.62400
F3291       F  0.61625962  0.73514106  0.26431646    -0.22800
F3292       F  0.56962233  0.76512097  0.27034534    -0.20100
F3293       F  0.61606332  0.79021273  0.26199170    -0.19800
F3294       F  0.59012383  0.72537983  0.16693004    -0.19800
F3295       F  0.59234187  0.78052139  0.16500057    -0.20100
F3296       F  0.54344134  0.75660605  0.16943489    -0.22800
C3297       C  0.87980077  0.74199826  0.21803700    -0.05700
C3298       C  0.88660338  0.75641314  0.20007752     0.00300
C3299       C  0.91950552  0.76545840  0.19555784    -0.08300
C3300       C  0.94465385  0.75929283  0.20928185    -0.05700
C3301       C  0.93808763  0.74474634  0.22739835     0.00300
C3302       C  0.90438630  0.73707791  0.23220096    -0.08200
C3303       C  0.89138321  0.72498204  0.25178310     0.62200
H3304       H  0.85442926  0.73522813  0.22127797     0.12900
H3305       H  0.97002556  0.76518900  0.20568869     0.12900
C3306       C  0.92832323  0.78032326  0.17602834     0.62400
F3307       F  0.86483090  0.74505517  0.25793821    -0.22800
F3308       F  0.91419412  0.72516303  0.26654997    -0.20100
F3309       F  0.88022337  0.69334882  0.24944627    -0.19800
F3310       F  0.91212716  0.81047103  0.17427721    -0.19800
F3311       F  0.91882893  0.75965128  0.16104905    -0.20100
F3312       F  0.96214689  0.78506944  0.17403509    -0.22800
C3313       C  0.77589329  0.58731968  0.06611317    -0.05700
C3314       C  0.74901342  0.58805703  0.05341377     0.00300
C3315       C  0.72269573  0.61127473  0.05668685    -0.08300
C3316       C  0.72489384  0.63404087  0.07234220    -0.05700
C3317       C  0.75228416  0.63391614  0.08493096     0.00300
C3318       C  0.77777658  0.60914923  0.08214143    -0.08200
C3319       C  0.80645415  0.60407243  0.09608585     0.62200
H3320       H  0.79549513  0.56898846  0.06340551     0.12900
H3321       H  0.70525555  0.65242383  0.07473885     0.12900
C3322       C  0.69239860  0.61160365  0.04376109     0.62400
F3323       F  0.82053801  0.57276283  0.09415792    -0.22800
F3324       F  0.79561093  0.60774305  0.11526664    -0.20100
F3325       F  0.83102273  0.62611009  0.09202610    -0.19800
F3326       F  0.67833870  0.58096566  0.04370410    -0.19800
F3327       F  0.70153049  0.61939774  0.02488480    -0.20100
F3328       F  0.66847858  0.63440980  0.05021154    -0.22800
C3329       C  0.76893491  0.91520773  0.05984429    -0.05700
C3330       C  0.73791409  0.92333086  0.05207326     0.00300
C3331       C  0.70916075  0.90872169  0.05966647    -0.08300
C3332       C  0.71236871  0.88752867  0.07568520    -0.05700
C3333       C  0.74342250  0.87993072  0.08412529     0.00300
C3334       C  0.77251017  0.89322680  0.07543640    -0.08200
C3335       C  0.80738237  0.88428826  0.08203430     0.62200
H3336       H  0.79050817  0.92652516  0.05346194     0.12900
H3337       H  0.69025260  0.87685112  0.08167223     0.12900
C3338       C  0.67532000  0.91564720  0.05085553     0.62400
F3339       F  0.83153632  0.89874118  0.07066231    -0.22800
F3340       F  0.81253080  0.85067920  0.08042330    -0.20100
F3341       F  0.81156092  0.89467352  0.10112531    -0.19800
F3342       F  0.67621659  0.90724291  0.03121820    -0.19800
F3343       F  0.66689388  0.94866590  0.05289655    -0.20100
F3344       F  0.65065248  0.89784613  0.05979010    -0.22800
C3345       C  0.73952592  0.60785296  0.94963681    -0.05700
C3346       C  0.76784761  0.58779129  0.95200464     0.00300
C3347       C  0.79622025  0.59231221  0.94006642    -0.08300
C3348       C  0.79412638  0.61519871  0.92485828    -0.05700
C3349       C  0.76497874  0.63425405  0.92168247     0.00300
C3350       C  0.73777493  0.63164961  0.93497289    -0.08200
C3351       C  0.70709532  0.65393890  0.93418796     0.62200
H3352       H  0.71842832  0.60423305  0.95930175     0.12900
H3353       H  0.81527123  0.61781812  0.91515578     0.12900
C3354       C  0.82860446  0.57350852  0.94368221     0.62400
F3355       F  0.68782490  0.65143391  0.95093918    -0.22800
F3356       F  0.68802278  0.64523931  0.91840880    -0.20100
F3357       F  0.71613781  0.68637752  0.93271358    -0.19800
F3358       F  0.82442761  0.54018972  0.94101334    -0.19800
F3359       F  0.83860488  0.57935422  0.96262385    -0.20100
F3360       F  0.85377177  0.58298409  0.93114820    -0.22800
C3361       C  0.77727209  0.91740596  0.93931680    -0.05700
C3362       C  0.74703719  0.92105096  0.94966332     0.00300
C3363       C  0.72050949  0.90042046  0.94508118    -0.08300
C3364       C  0.72520035  0.87686724  0.93003687    -0.05700
C3365       C  0.75485617  0.87401205  0.91889004     0.00300
C3366       C  0.78182731  0.89419922  0.92396112    -0.08200
C3367       C  0.81512467  0.89185461  0.91327800     0.62200
H3368       H  0.79726203  0.93333086  0.94333358     0.12900
H3369       H  0.70515250  0.86079992  0.92667495     0.12900
C3370       C  0.68683430  0.90439189  0.95531190     0.62400
F3371       F  0.83726104  0.91437821  0.92039810    -0.22800
F3372       F  0.81083552  0.89799401  0.89364375    -0.20100
F3373       F  0.82922792  0.86083049  0.91559427    -0.19800
F3374       F  0.66421856  0.88227000  0.94827067    -0.19800
F3375       F  0.67409937  0.93578953  0.95235709    -0.20100
F3376       F  0.68982842  0.89932118  0.97511846    -0.22800
C3377       C  0.97546246  0.67306482  0.72699339    -0.05700
C3378       C  0.00198264  0.69305746  0.72187242     0.00300
C3379       C  0.52154564  0.68521015  0.70493411    -0.08300
C3380       C  0.51413210  0.65687251  0.69394751    -0.05700
C3381       C  0.98936809  0.63504073  0.70018761     0.00300
C3382       C  0.96950154  0.64342180  0.71690662    -0.08200
C3383       C  0.94366865  0.62050572  0.72497180     0.62200
H3384       H  0.96024260  0.68014887  0.73957464     0.12900
H3385       H  0.52857396  0.65080796  0.68087035     0.12900
C3386       C  0.54942242  0.70688558  0.69816374     0.62400
F3387       F  0.93268106  0.63029396  0.74345965    -0.22800
F3388       F  0.95712265  0.58900741  0.72635845    -0.20100
F3389       F  0.91647656  0.62022801  0.71291502    -0.19800
F3390       F  0.57541709  0.70462953  0.71104694    -0.19800
F3391       F  0.53810053  0.73918026  0.69725124    -0.20100
F3392       F  0.56153235  0.69760828  0.67982235    -0.22800
C3393       C  0.99017759  0.80202024  0.70567143    -0.05700
C3394       C  0.99351449  0.80854496  0.72571583     0.00300
C3395       C  0.49794553  0.84332078  0.73633379    -0.08300
C3396       C  0.49676137  0.86985804  0.72331598    -0.05700
C3397       C  0.98790864  0.86057913  0.69895786     0.00300
C3398       C  0.98757181  0.82764794  0.69205755    -0.08200
C3399       C  0.98534958  0.81977047  0.67040471     0.62200
H3400       H  0.99103652  0.77669890  0.70066811     0.12900
H3401       H  0.49962217  0.89467027  0.72888602     0.12900
C3402       C  0.50035588  0.85169782  0.75795721     0.62400
F3403       F  0.98610218  0.78621822  0.66673127    -0.22800
F3404       F  0.50631292  0.83947848  0.66332810    -0.20100
F3405       F  0.95593350  0.83282328  0.66327261    -0.19800
F3406       F  0.53262025  0.85995116  0.76213704    -0.19800
F3407       F  0.97549578  0.82645553  0.76516642    -0.20100
F3408       F  0.47948073  0.87833048  0.76258850    -0.22800
C3409       C  0.56729498  0.73953164  0.79604869    -0.05700
C3410       C  0.56983165  0.74638514  0.77579392     0.00300
C3411       C  0.60263755  0.75219086  0.76813082    -0.08300
C3412       C  0.62981823  0.75221745  0.78098800    -0.05700
C3413       C  0.62624731  0.74636980  0.80094506     0.00300
C3414       C  0.59445073  0.74052526  0.80874587    -0.08200
C3415       C  0.58904564  0.73598772  0.83058294     0.62200
H3416       H  0.54425820  0.73236263  0.80243764     0.12900
H3417       H  0.65454212  0.75673787  0.77527461     0.12900
C3418       C  0.61212530  0.75864688  0.74690117     0.62400
F3419       F  0.55566090  0.73471293  0.83558429    -0.22800
F3420       F  0.60216545  0.76207466  0.84076694    -0.20100
F3421       F  0.60441290  0.70705501  0.83640853    -0.19800
F3422       F  0.58669151  0.75671679  0.73382907    -0.19800
F3423       F  0.63649514  0.73594122  0.74089413    -0.20100
F3424       F  0.62492704  0.78976263  0.74566925    -0.22800
C3425       C  0.92072473  0.76657832  0.76851237    -0.05700
C3426       C  0.94490438  0.74217451  0.77231856     0.00300
C3427       C  0.93792132  0.71798604  0.78644988    -0.08300
C3428       C  0.90859071  0.72141334  0.79775609    -0.05700
C3429       C  0.88531884  0.74722167  0.79498620     0.00300
C3430       C  0.89076043  0.76943624  0.77942352    -0.08200
C3431       C  0.86554834  0.79606819  0.77398272     0.62200
H3432       H  0.92614896  0.78449554  0.75743284     0.12900
H3433       H  0.90420295  0.70398124  0.80927603     0.12900
C3434       C  0.96108275  0.68880816  0.79042931     0.62400
F3435       F  0.87170811  0.80775043  0.75540814    -0.22800
F3436       F  0.86714494  0.82233392  0.78685138    -0.20100
F3437       F  0.83385042  0.78378603  0.77421549    -0.19800
F3438       F  0.98215241  0.69665033  0.80544616    -0.19800
F3439       F  0.97971601  0.67959402  0.77407026    -0.20100
F3440       F  0.94304971  0.66186025  0.79593720    -0.22800
C3441       C  0.80367317  0.52396145  0.71404340    -0.05700
C3442       C  0.79938269  0.99297181  0.72696958     0.00300
C3443       C  0.82512224  0.96871212  0.72829424    -0.08300
C3444       C  0.85392274  0.97186121  0.71664299    -0.05700
C3445       C  0.85710955  0.99739101  0.70320104     0.00300
C3446       C  0.83189804  0.52665640  0.70183672    -0.08200
C3447       C  0.83480241  0.55690791  0.68917649     0.62200
H3448       H  0.78420792  0.54275774  0.71380190     0.12900
H3449       H  0.87402558  0.95375488  0.71757843     0.12900
C3450       C  0.82125012  0.93820319  0.74048349     0.62400
F3451       F  0.80103156  0.06511381  0.68543986    -0.22800
F3452       F  0.83650873  0.03357042  0.66763631    -0.20100
F3453       F  0.86274040  0.57395281  0.69423595    -0.19800
F3454       F  0.79329221  0.92208952  0.73458742    -0.19800
F3455       F  0.81616691  0.44640397  0.75680572    -0.20100
F3456       F  0.84392750  0.41692317  0.73394787    -0.22800
C3457       C  0.64784012  0.98083839  0.73488129    -0.05700
C3458       C  0.67444519  0.00150767  0.73011908     0.00300
C3459       C  0.66948239  0.02429243  0.71451754    -0.11900
C3460       C  0.64024037  0.02264058  0.70366832    -0.05700
C3461       C  0.61586634  0.99961158  0.70743300     0.00300
C3462       C  0.61946213  0.97840586  0.72337068    -0.08200
C3463       C  0.59356141  0.95313523  0.72825565     0.62200
H3464       H  0.64848791  0.96629072  0.74777477     0.12900
H3465       H  0.63684825  0.03932515  0.69159297     0.12900
C3466       C  0.69283894  0.55131145  0.70836724     0.62400
F3467       F  0.60052284  0.93685818  0.74542391    -0.22800
F3468       F  0.59278733  0.92984400  0.71341886    -0.20100
F3469       F  0.56077380  0.47534912  0.73075104    -0.19800
F3470       F  0.70152212  0.04591040  0.68856712    -0.19800
F3471       F  0.70833748  0.54166007  0.69099331    -0.20100
F3472       F  0.71685739  0.55903215  0.72161376    -0.22800
C3473       C  0.72747041  0.56011662  0.79526114    -0.05700
C3474       C  0.74979187  0.55549685  0.77945639     0.00300
C3475       C  0.77600988  0.57777965  0.77710156    -0.08300
C3476       C  0.77849949  0.60416884  0.79050117    -0.05700
C3477       C  0.75530522  0.60950050  0.80576921     0.00300
C3478       C  0.73009802  0.58622771  0.80876315    -0.08200
C3479       C  0.70591362  0.58847091  0.82602845     0.62200
H3480       H  0.70698067  0.54357542  0.79659058     0.12900
H3481       H  0.79774532  0.62195071  0.78853505     0.12900
C3482       C  0.79944050  0.57569405  0.75962242     0.62400
F3483       F  0.68920724  0.55947369  0.82847967    -0.22800
F3484       F  0.68254009  0.61336021  0.82307628    -0.20100
F3485       F  0.72281627  0.59456713  0.84310571    -0.19800
F3486       F  0.78110342  0.57774848  0.74279238    -0.19800
F3487       F  0.81762420  0.54647647  0.75969715    -0.20100
F3488       F  0.82171697  0.60102486  0.75953413    -0.22800
C3489       C  0.74777131  0.90952994  0.76958062    -0.05700
C3490       C  0.74743175  0.94058151  0.77879671     0.00300
C3491       C  0.74908892  0.94261336  0.79942547    -0.08300
C3492       C  0.75243903  0.91329941  0.81007056    -0.05700
C3493       C  0.75273358  0.88246429  0.80067738     0.00300
C3494       C  0.75032752  0.88038066  0.78020289    -0.08200
C3495       C  0.74987860  0.84730904  0.76977818     0.62200
H3496       H  0.74439149  0.90827101  0.75395131     0.12900
H3497       H  0.75351063  0.91412077  0.82586570     0.12900
C3498       C  0.74451435  0.97520660  0.81014281     0.62400
F3499       F  0.74762393  0.85052632  0.74973759    -0.22800
F3500       F  0.72290213  0.82989749  0.77625288    -0.20100
F3501       F  0.77880432  0.82970678  0.77371287    -0.19800
F3502       F  0.71421421  0.98930112  0.80525865    -0.19800
F3503       F  0.76977359  0.99587773  0.80501481    -0.20100
F3504       F  0.74474633  0.97159826  0.83021561    -0.22800
C3505       C  0.58169327  0.79118967  0.06720827    -0.05700
C3506       C  0.57936018  0.76307779  0.05542170     0.00300
C3507       C  0.59791812  0.73432722  0.05981945    -0.08300
C3508       C  0.61978307  0.73517687  0.07557587    -0.05700
C3509       C  0.62277524  0.76341387  0.08744927     0.00300
C3510       C  0.60270979  0.79189955  0.08343941    -0.08200
C3511       C  0.60240118  0.82271940  0.09621972     0.62200
H3512       H  0.56649115  0.81255084  0.06358794     0.12900
H3513       H  0.63491666  0.71354325  0.07854133     0.12900
C3514       C  0.59426733  0.70282566  0.04799565     0.62400
F3515       F  0.57839839  0.84556103  0.09057685    -0.22800
F3516       F  0.63281508  0.83751345  0.09490843    -0.20100
F3517       F  0.59556540  0.81473411  0.11541327    -0.19800
F3518       F  0.60578244  0.70720024  0.02912459    -0.19800
F3519       F  0.56121265  0.69443386  0.04752113    -0.20100
F3520       F  0.61200619  0.67678718  0.05593111    -0.22800
C3521       C  0.90076937  0.73618570  0.05446849    -0.05700
C3522       C  0.91658879  0.76565993  0.05075820     0.00300
C3523       C  0.90785647  0.79424750  0.06169872    -0.08300
C3524       C  0.88454951  0.79180694  0.07699039    -0.05700
C3525       C  0.86928292  0.76196952  0.08142204     0.00300
C3526       C  0.87684568  0.73374120  0.06950512    -0.08200
C3527       C  0.85991800  0.70120421  0.07224580     0.62200
H3528       H  0.90790390  0.71486441  0.04558988     0.12900
H3529       H  0.87874412  0.81343193  0.08578533     0.12900
C3530       C  0.92311163  0.82712004  0.05719912     0.62400
F3531       F  0.86855115  0.67871361  0.05756563    -0.22800
F3532       F  0.82578486  0.70606153  0.07192143    -0.20100
F3533       F  0.86921811  0.68763282  0.08980538    -0.19800
F3534       F  0.95704891  0.82525200  0.05998467    -0.19800
F3535       F  0.90996749  0.85219898  0.06904995    -0.20100
F3536       F  0.91703126  0.83532563  0.03802551    -0.22800
C3537       C  0.59815198  0.78884813  0.94287220    -0.05700
C3538       C  0.59447031  0.76113381  0.95439165     0.00300
C3539       C  0.61414997  0.73253996  0.95068131    -0.08300
C3540       C  0.63667116  0.73232702  0.93483273    -0.05700
C3541       C  0.63966497  0.75961663  0.92255602     0.00300
C3542       C  0.62040117  0.78883100  0.92691373    -0.08200
C3543       C  0.62234477  0.81984368  0.91489872     0.62200
H3544       H  0.58241603  0.81024214  0.94622641     0.12900
H3545       H  0.65190791  0.71051921  0.93190268     0.12900
C3546       C  0.61090204  0.70238332  0.96332965     0.62400
F3547       F  0.60037068  0.84437011  0.92158079    -0.22800
F3548       F  0.61478491  0.81313039  0.89564160    -0.20100
F3549       F  0.65389030  0.83198105  0.91608451    -0.19800
F3550       F  0.62894995  0.67578101  0.95573549    -0.19800
F3551       F  0.57808430  0.69338113  0.96466248    -0.20100
F3552       F  0.62239098  0.70917658  0.98184141    -0.22800
C3553       C  0.89635145  0.78262200  0.92109894    -0.05700
C3554       C  0.87841495  0.75385300  0.91811002     0.00300
C3555       C  0.88202985  0.72757791  0.93150159    -0.08300
C3556       C  0.90480206  0.73073454  0.94677209    -0.05700
C3557       C  0.92309566  0.75922551  0.94922104     0.00300
C3558       C  0.91820400  0.78605029  0.93665176    -0.08200
C3559       C  0.93642415  0.81800668  0.93929869     0.62200
H3560       H  0.89386897  0.80250881  0.91086830     0.12900
H3561       H  0.90890034  0.71080698  0.95686660     0.12900
C3562       C  0.86197158  0.69659083  0.93009041     0.62400
F3563       F  0.92167834  0.84321009  0.92883615    -0.22800
F3564       F  0.96896065  0.81387298  0.93283818    -0.20100
F3565       F  0.93609633  0.82763139  0.95874380    -0.19800
F3566       F  0.87213523  0.67842675  0.91379052    -0.19800
F3567       F  0.82849264  0.70476889  0.92889098    -0.20100
F3568       F  0.86609503  0.67689263  0.94627615    -0.22800
C3569       C  0.80522692  0.01815054  0.29470803    -0.05700
C3570       C  0.80488670  0.99899916  0.27756013     0.00300
C3571       C  0.83342387  0.47837704  0.26909908    -0.08300
C3572       C  0.86058514  0.47758116  0.28187433    -0.05700
C3573       C  0.86148824  0.99889019  0.30136176     0.00300
C3574       C  0.83267577  0.01754586  0.30717784    -0.08200
C3575       C  0.82995027  0.03585530  0.32660357     0.62200
H3576       H  0.78401371  0.03433135  0.29804171     0.12900
H3577       H  0.88350855  0.46469740  0.27762483     0.12900
C3578       C  0.83566763  0.45932247  0.24992927     0.62400
F3579       F  0.79701407  0.04187756  0.33197208    -0.22800
F3580       F  0.84239709  0.55001019  0.32979865    -0.20100
F3581       F  0.84440565  0.01742859  0.34121634    -0.19800
F3582       F  0.82941969  0.47989742  0.23454592    -0.19800
F3583       F  0.80357120  0.93393648  0.25744403    -0.20100
F3584       F  0.86687082  0.44486002  0.24684001    -0.22800
C3585       C  0.69551097  0.48322800  0.29254211    -0.05700
C3586       C  0.68852046  0.00023349  0.27728146     0.00300
C3587       C  0.65493796  0.01040129  0.27354323    -0.08300
C3588       C  0.63063079  0.00481055  0.28784847    -0.05700
C3589       C  0.63727206  0.98570209  0.30415980     0.00300
C3590       C  0.67032322  0.47388258  0.30567964    -0.08200
C3591       C  0.67916557  0.45364407  0.32338597     0.62200
H3592       H  0.72122151  0.47712166  0.29563819     0.12900
H3593       H  0.60555473  0.01460263  0.28592661     0.12900
C3594       C  0.64232857  0.02620583  0.25488318     0.62400
F3595       F  0.71303202  0.44697104  0.32432793    -0.22800
F3596       F  0.65889457  0.92129368  0.32182976    -0.20100
F3597       F  0.66929669  0.47033649  0.34028874    -0.19800
F3598       F  0.61264735  0.01231584  0.24964160    -0.19800
F3599       F  0.66326596  0.51324697  0.23636716    -0.20100
F3600       F  0.63653537  0.05946047  0.25822048    -0.22800
C3601       C  0.72948679  0.60209881  0.23188228    -0.05700
C3602       C  0.75048403  0.57452236  0.22693447     0.00300
C3603       C  0.77378567  0.57859977  0.21107728    -0.08300
C3604       C  0.77284963  0.60789004  0.20041853    -0.05700
C3605       C  0.75113582  0.63416025  0.20507419     0.00300
C3606       C  0.72913950  0.63155000  0.22120013    -0.08200
C3607       C  0.70614488  0.66016402  0.22757599     0.62200
H3608       H  0.71357652  0.60160426  0.24452769     0.12900
H3609       H  0.78951586  0.61017059  0.18794634     0.12900
C3610       C  0.80016758  0.55380380  0.20369330     0.62400
F3611       F  0.68753647  0.65305197  0.24408300    -0.22800
F3612       F  0.68414402  0.66779197  0.21290645    -0.20100
F3613       F  0.72477717  0.68736271  0.23176380    -0.19800
F3614       F  0.83026345  0.56921718  0.20168791    -0.19800
F3615       F  0.79101599  0.54198624  0.18557980    -0.20100
F3616       F  0.80558921  0.52764310  0.21566289    -0.22800
C3617       C  0.77261019  0.94375170  0.21383603    -0.05700
C3618       C  0.74628075  0.94960728  0.22714370     0.00300
C3619       C  0.72211745  0.92514980  0.22969605    -0.08300
C3620       C  0.72484857  0.89628383  0.21823499    -0.05700
C3621       C  0.75114178  0.89047893  0.20488879     0.00300
C3622       C  0.77638111  0.91413805  0.20316849    -0.08200
C3623       C  0.80718627  0.90879646  0.19027098     0.62200
H3624       H  0.79052040  0.96281250  0.21192922     0.12900
H3625       H  0.70639002  0.87759923  0.21977722     0.12900
C3626       C  0.69289954  0.92931413  0.24382424     0.62400
F3627       F  0.82815585  0.93517465  0.19113473    -0.22800
F3628       F  0.79816705  0.90463953  0.17100090    -0.20100
F3629       F  0.82501798  0.88139712  0.19643313    -0.19800
F3630       F  0.67681452  0.95905857  0.24084611    -0.19800
F3631       F  0.70383402  0.92762491  0.26278481    -0.20100
F3632       F  0.66982929  0.90502579  0.24137251    -0.22800
loop_ 
_geom_bond_atom_site_label_1 
_geom_bond_atom_site_label_2 
_geom_bond_distance 
_geom_bond_site_symmetry_2 
_ccdc_geom_bond_type 
C1            C2   1.528       .  S
C1            C7   1.548       .  S
C1            C5   1.541       .  S
C1          C878   1.545       .  S
C2            H9   1.087       .  S
C2          C911   1.360       .  D
C3            C4   1.545       .  S
C3          C910   1.362       .  D
C3          C846   1.482       .  S
C4            C8   1.542       .  S
C4            C6   1.537       .  S
C4           H10   1.105       .  S
C5          H919   1.086       .  S
C5          C914   1.370   1_545  D
C6          C913   1.372       .  D
C6          C894   1.496       .  S
C7           H12   1.080       .  S
C7          C916   1.368       .  D
C8          C915   1.365       .  D
C8          C862   1.494       .  S
H11         C913   1.086       .  S
N13          C18   1.351   1_556  A
N13          C17   1.351       .  A
N13          H45   1.035       .  S
N14          C22   1.346       .  A
N14        C1837   1.346   1_455  A
N15          C20   1.347       .  A
N15          C19   1.349   1_554  A
N15          H46   1.040       .  S
N16          C24   1.347       .  A
N16        C1839   1.347   1_455  A
C17          C25   1.387       .  A
C17          C33   1.411       .  A
C18          C34   1.412       .  A
C18          C26   1.388       .  A
C19          C27   1.387       .  A
C19          C36   1.408       .  A
C20          C35   1.406       .  A
C20          C28   1.386       .  A
C21        N1830   1.350       .  A
C21          C33   1.411       .  A
C21          C29   1.386       .  A
C22          C36   1.406       .  A
C22          C30   1.386       .  A
C23        N1832   1.350       .  A
C23          C31   1.387       .  A
C23          C34   1.412       .  A
C24          C32   1.387       .  A
C24          C35   1.405       .  A
C25          C26   1.373   1_556  A
C25          H37   1.083       .  S
C26          H38   1.082       .  S
C27          C28   1.379   1_556  A
C27          H39   1.082       .  S
C28          H40   1.082       .  S
C29        C1846   1.369       .  A
C29          H41   1.082       .  S
C30        C1845   1.371   1_455  A
C30          H42   1.082       .  S
C31        C1848   1.368       .  A
C31          H43   1.082       .  S
C32        C1847   1.368   1_455  A
C32          H44   1.082       .  S
C33         C833   1.480       .  S
C34         C798   1.480       .  S
C35         C782   1.472       .  S
C36         C814   1.476       .  S
C47          C53   1.545       .  S
C47          C51   1.536       .  S
C47         C956   1.535       .  S
C47         C734   1.552       .  S
C48         C955   1.534   1_545  S
C48          H55   1.087       .  S
C48          C49   1.365       .  D
C49         C958   1.546   1_545  S
C49         C750   1.493       .  S
C50          C54   1.543       .  S
C50          C52   1.543       .  S
C50         C957   1.544       .  S
C50          H56   1.104       .  S
C51          H57   1.086       .  S
C51          C52   1.367       .  D
C52         C718   1.487       .  S
C53          H58   1.082       .  S
C53          C54   1.368       .  D
C54         C766   1.488       .  S
C59          C60   1.531       .  S
C59          C65   1.542       .  S
C59          C63   1.548       .  S
C59         C686   1.545       .  S
C60          H67   1.086       .  S
C60        C1877   1.366       .  D
C61          C62   1.542       .  S
C61        C1876   1.363       .  D
C61         C670   1.485       .  S
C62          C66   1.543       .  S
C62          C64   1.538       .  S
C62          H68   1.111       .  S
C63        H1885   1.084       .  S
C63        C1880   1.366   1_455  D
C64        C1879   1.367       .  D
C64         C702   1.491       .  S
C65          H70   1.082       .  S
C65        C1882   1.368       .  D
C66        C1881   1.370       .  D
C66         C654   1.491       .  S
H69        C1879   1.084       .  S
N71          C76   1.354       .  A
N71          C75   1.352   1_556  A
N71         H103   1.040       .  S
N72          C80   1.352       .  A
N72         C987   1.352   1_545  A
N73          C78   1.353       .  A
N73          C77   1.354   1_556  A
N73         H104   1.041       .  S
N74          C82   1.352   1_565  A
N74         C989   1.352       .  A
C75          C83   1.388       .  A
C75          C91   1.415       .  A
C76          C92   1.414       .  A
C76          C84   1.386       .  A
C77          C85   1.387       .  A
C77          C94   1.416       .  A
C78          C93   1.415       .  A
C78          C86   1.386       .  A
C79         N980   1.352       .  A
C79          C91   1.416       .  A
C79          C87   1.387       .  A
C80          C94   1.416       .  A
C80          C88   1.386       .  A
C81         N982   1.351       .  A
C81          C89   1.385       .  A
C81          C92   1.411       .  A
C82          C90   1.386       .  A
C82          C93   1.413       .  A
C83          C84   1.378   1_554  A
C83          H95   1.082       .  S
C84          H96   1.082       .  S
C85          C86   1.379   1_554  A
C85          H97   1.082       .  S
C86          H98   1.082       .  S
C87         C996   1.374       .  A
C87          H99   1.082       .  S
C88         C995   1.372   1_545  A
C88         H100   1.082       .  S
C89         C998   1.373       .  A
C89         H101   1.082       .  S
C90         C997   1.373   1_545  A
C90         H102   1.082       .  S
C91         C606   1.489       .  S
C92         C638   1.492       .  S
C93         C622   1.494       .  S
C94         C590   1.496       .  S
C105        N123   1.352       .  A
C105        C142   1.458       .  S
C105        C830   1.486       .  S
N106        N123   1.325       .  A
N106        N128   1.317       .  A
N106       Co143   2.086       .  S
C107        N132   1.341       .  A
C107        H152   1.082       .  S
C107        C145   1.459       .  S
H108        C149   1.081       .  S
C109        N133   1.336       .  A
C109        H138   1.081       .  S
C109        C113   1.456       .  S
Co110       N128   2.062       .  S
Co110       N118   2.090       .  S
Co110       N150   2.087       .  S
Co110       N126   2.075       .  S
Co110      Cl154   2.451       .  S
N111        C149   1.340       .  A
N111        N118   1.318       .  A
N111       Co112   2.086       .  S
Co112       N115   2.087       .  S
Co112       N132   2.088       .  S
Co112       N119   2.083       .  S
Co112      Cl154   2.449       .  S
C113        N151   1.351       .  A
C113        C817   1.481       .  S
N114        N121   1.319       .  A
N114        N144   1.330       .  A
N114       Co147   2.109       .  S
N115        N133   1.318       .  A
N115        N151   1.324       .  A
N116        C145   1.348       .  A
N116        N126   1.324       .  A
H117        C142   1.078       .  S
N118        N139   1.326       .  A
N119        N137   1.322       .  A
N119        N124   1.322       .  A
C120        N124   1.347       .  A
C120        C148   1.468       .  S
C120        C689   1.485       .  S
N121        C136   1.337       .  A
N121       Co143   2.079       .  S
C122        N150   1.340       .  A
C122        H156   1.080       .  S
C122        C125   1.464       .  S
C125        N146   1.353       .  A
C125        C705   1.485       .  S
N126        N132   1.319       .  A
N127        C153   1.345       .  A
N127        N129   1.320       .  A
N127       Co143   2.090       .  S
N128        C142   1.332       .  A
N129        N157   1.322       .  A
N129       Co147   2.077       .  S
H130        C153   1.082       .  S
H131        C148   1.082       .  S
N133       Co147   2.067       .  S
N134        N146   1.324       .  A
N134        N150   1.320       .  A
N134       Co143   2.088       .  S
C135        N139   1.351       .  A
C135        C149   1.469       .  S
C135        C641   1.499       .  S
C136        H140   1.080       .  S
C136        C155   1.457       .  S
N137        C148   1.348       .  A
N137       Co147   2.109       .  S
C141        N157   1.347       .  A
C141        C153   1.465       .  S
C141        C753   1.486       .  S
Co143      Cl154   2.454       .  S
N144        C155   1.357       .  A
C145        C769   1.471       .  S
Co147      Cl154   2.450       .  S
C155        C625   1.492       .  S
C158        N176   1.349       .  A
C158        C195   1.458       .  S
C158        C574   1.476       .  S
N159        N176   1.324       .  A
N159        N181   1.319       .  A
N159       Co196   2.087       .  S
C160        N185   1.341       .  A
C160        H205   1.078       .  S
C160        C198   1.467       .  S
H161        C202   1.082       .  S
C162        N186   1.341       .  A
C162        H191   1.081       .  S
C162        C166   1.459       .  S
Co163       N181   2.079       .  S
Co163       N171   2.077       .  S
Co163       N203   2.067       .  S
Co163       N179   2.083       .  S
Co163      Cl207   2.445       .  S
N164        C202   1.341       .  A
N164        N171   1.319       .  A
N164       Co165   2.083       .  S
Co165       N168   2.090       .  S
Co165       N185   2.088       .  S
Co165       N172   2.078       .  S
Co165      Cl207   2.456       .  S
C166        N204   1.351       .  A
C166        C558   1.481       .  S
N167        N174   1.320       .  A
N167        N197   1.323       .  A
N167       Co200   2.083       .  S
N168        N186   1.321       .  A
N168        N204   1.328       .  A
N169        C198   1.350       .  A
N169        N179   1.325       .  A
H170        C195   1.081       .  S
N171        N192   1.321       .  A
N172        N190   1.319       .  A
N172        N177   1.322       .  A
C173        N177   1.348       .  A
C173        C201   1.467       .  S
C173        C785   1.489       .  S
N174        C189   1.338       .  A
N174       Co196   2.083       .  S
C175        N203   1.333       .  A
C175        H209   1.077       .  S
C175        C178   1.460       .  S
C178        N199   1.351       .  A
C178        C801   1.486       .  S
N179        N185   1.316       .  A
N180        C206   1.337       .  A
N180        N182   1.318       .  A
N180       Co196   2.075       .  S
N181        C195   1.342       .  A
N182        N210   1.329       .  A
N182       Co200   2.105       .  S
H183        C206   1.076       .  S
H184        C201   1.081       .  S
N186       Co200   2.095       .  S
N187        N199   1.324       .  A
N187        N203   1.317       .  A
N187       Co196   2.084       .  S
C188        N192   1.347       .  A
C188        C202   1.464       .  S
C188        C897   1.482       .  S
C189        H193   1.082       .  S
C189        C208   1.462       .  S
N190        C201   1.338       .  A
N190       Co200   2.082       .  S
C194        N210   1.358       .  A
C194        C206   1.458       .  S
C194        C593   1.493       .  S
Co196      Cl207   2.448       .  S
N197        C208   1.349       .  A
C198        C609   1.499       .  S
Co200      Cl207   2.450       .  S
C208        C881   1.475       .  S
C211        N229   1.355       .  A
C211        C737   1.485       .  S
C211       C1156   1.458       .  S
N212        N229   1.328       .  A
N212       N1142   1.323       .  A
N212       Co249   2.108       .  S
C213        N238   1.337       .  A
C213        H258   1.081       .  S
C213        C251   1.463       .  S
H214        C255   1.079       .  S
C215        N239   1.339       .  A
C215        H244   1.081       .  S
C215        C219   1.463       .  S
Co216       N234   2.068       .  S
Co216       N224   2.078       .  S
Co216       N256   2.071       .  S
Co216       N232   2.079       .  S
Co216     Cl2984   2.449   1_445  S
N217        C255   1.346       .  A
N217       N2040   1.318       .  A
N217       Co218   2.095       .  S
Co218       N221   2.092       .  S
Co218       N238   2.082       .  S
Co218       N225   2.080       .  S
Co218     Cl1168   2.453   1_545  S
C219       N1165   1.349       .  A
C219        C721   1.484       .  S
N220        N250   1.324       .  A
N220       N2043   1.319       .  A
N220       Co253   2.076       .  S
N221        N257   1.324       .  A
N221       N1147   1.321   1_545  A
N222       C2067   1.351   1_455  A
N222        N232   1.324       .  A
H223        C248   1.082       .  S
N224        N245   1.323       .  A
N224       N2033   1.317   1_455  A
N225        N230   1.324       .  A
N225       N1151   1.317   1_545  A
C226       N1138   1.354       .  A
C226        C254   1.460       .  S
C226        C510   1.488       .  S
N227        C242   1.341       .  A
N227       N2036   1.322   1_455  A
N227       Co249   2.086       .  S
C228        N256   1.338       .  A
C228        H262   1.081       .  S
C228       C1139   1.462   1_545  S
N230       C1134   1.351   1_545  A
C231        N252   1.347       .  A
C231        C494   1.489       .  S
C231       C1136   1.467       .  S
N232       N2054   1.317   1_455  A
N233        C259   1.345       .  A
N233       N2051   1.318   1_455  A
N233       Co249   2.099       .  S
N234        C248   1.333       .  A
N234       N1120   1.320   1_545  A
N235        N263   1.325       .  A
N235       N2049   1.318       .  A
N235       Co253   2.089       .  S
H236        C259   1.076       .  S
H237        C254   1.078       .  S
N238       N2048   1.317       .  A
N239       N1129   1.319       .  A
N239       Co253   2.082       .  S
N240        N252   1.322       .  A
N240       N1164   1.317       .  A
N240       Co249   2.071       .  S
C241       N2061   1.352       .  A
C241        C255   1.471       .  S
C241        C657   1.495       .  S
C242        H246   1.082       .  S
C242       C2077   1.457   1_455  S
N243        C254   1.339       .  A
N243       N1133   1.317       .  A
N243       Co253   2.069       .  S
N245       C2057   1.350   1_455  A
C247        N263   1.353       .  A
C247        C542   1.503       .  S
C247       C2075   1.473       .  S
C248       C1119   1.455   1_545  S
Co249     Cl2076   2.455   1_455  S
N250        C261   1.348       .  A
C251       N2038   1.353       .  A
C251        C526   1.491       .  S
Co253      Cl260   2.452       .  S
N256       N1148   1.317   1_545  A
N257       C1127   1.351   1_545  A
C259       C2063   1.466   1_455  S
Cl260     Co2940   2.445       .  S
Cl260     Co1126   2.451       .  S
Cl260     Co2065   2.454       .  S
C261        C673   1.470       .  S
C261       C2058   1.458       .  S
C264        N282   1.352       .  A
C264        C414   1.478       .  S
C264       C2117   1.461       .  S
N265        N282   1.326       .  A
N265       N2103   1.320       .  A
N265       Co302   2.091       .  S
C266        N291   1.341       .  A
C266        H311   1.076       .  S
C266        C304   1.470       .  S
H267        C308   1.081       .  S
C268        N292   1.338       .  A
C268        H297   1.082       .  S
C268        C272   1.466       .  S
Co269       N287   2.081       .  S
Co269       N277   2.073   1_545  S
Co269       N309   2.075       .  S
Co269       N285   2.078   1_545  S
Co269     Cl3037   2.437   1_445  S
N270        C308   1.345       .  A
N270       N1185   1.321       .  A
N270       Co271   2.095       .  S
Co271       N274   2.095       .  S
Co271       N291   2.092       .  S
Co271       N278   2.090       .  S
Co271     Cl2129   2.463   1_455  S
C272       N2126   1.354       .  A
C272        C398   1.490       .  S
N273        N303   1.323       .  A
N273       N1188   1.319       .  A
N273       Co306   2.068       .  S
N274        N310   1.325       .  A
N274       N2108   1.320   1_455  A
N275       C1212   1.350   1_545  A
N275        N285   1.320   1_545  A
H276        C301   1.081       .  S
N277        N298   1.321   1_565  A
N277       N1178   1.321       .  A
N278        N283   1.326       .  A
N278       N2112   1.319   1_455  A
C279       N2099   1.356       .  A
C279        C307   1.464       .  S
C279        C446   1.496       .  S
N280        C295   1.340       .  A
N280       N1181   1.319   1_545  A
N280       Co302   2.080       .  S
C281        N309   1.339       .  A
C281        H315   1.077       .  S
C281       C2100   1.464   1_455  S
N283       C2095   1.353   1_455  A
C284        N305   1.351       .  A
C284        C430   1.484       .  S
C284       C2097   1.462       .  S
N285       N1199   1.318       .  A
N286        C312   1.339       .  A
N286       N1196   1.319   1_545  A
N286       Co302   2.084       .  S
N287        C301   1.339       .  A
N287       N2081   1.320   1_455  A
N288        N316   1.324       .  A
N288       N1194   1.319       .  A
N288       Co306   2.087       .  S
H289        C312   1.077       .  S
H290        C307   1.077       .  S
N291       N1193   1.318       .  A
N292       N2090   1.319       .  A
N292       Co306   2.089       .  S
N293        N305   1.325       .  A
N293       N2125   1.316       .  A
N293       Co302   2.079       .  S
C294       N1206   1.346       .  A
C294        C308   1.463       .  S
C294        C865   1.476       .  S
C295        H299   1.080       .  S
C295       C1222   1.461   1_545  S
N296        C307   1.339       .  A
N296       N2094   1.317       .  A
N296       Co306   2.076       .  S
N298       C1202   1.344   1_545  A
C300        N316   1.351       .  A
C300        C478   1.478       .  S
C300       C1220   1.459       .  S
C301       C2080   1.457       .  S
Co302     Cl1221   2.455   1_545  S
N303        C314   1.345       .  A
C304       N1183   1.351       .  A
C304        C462   1.491       .  S
Co306      Cl313   2.439       .  S
N309       N2109   1.315   1_455  A
N310       C2088   1.354   1_455  A
C312       C1208   1.462   1_545  S
Cl313     Co2993   2.442       .  S
Cl313     Co2087   2.467       .  S
Cl313     Co1210   2.457       .  S
C314        C849   1.482       .  S
C314       C1203   1.470       .  S
N317        C322   1.354       .  A
N317        C321   1.354       .  A
N317        H349   1.040   1_655  S
N318        C325   1.351       .  A
N318        C326   1.351       .  A
N319        C324   1.352       .  A
N319        C323   1.353       .  A
N319        H350   1.038   1_655  S
N320        C327   1.352       .  A
N320        C328   1.351       .  A
C321        C329   1.386       .  A
C321        C337   1.417       .  A
C322        C338   1.418       .  A
C322        C330   1.387       .  A
C323        C331   1.387       .  A
C323        C340   1.415       .  A
C324        C339   1.415       .  A
C324        C332   1.387       .  A
C325        C337   1.412       .  A
C325        C333   1.386   1_655  A
C326        C340   1.412       .  A
C326        C334   1.386   1_655  A
C327        C335   1.387   1_655  A
C327        C338   1.416       .  A
C328        C336   1.386   1_655  A
C328        C339   1.414       .  A
C329        C330   1.379       .  A
C329        H341   1.082       .  S
C330        H342   1.082       .  S
C331        C332   1.378       .  A
C331        H343   1.082       .  S
C332        H344   1.082       .  S
C333        C334   1.372       .  A
C333        H345   1.082       .  S
C334        H346   1.082       .  S
C335        C336   1.374       .  A
C335        H347   1.082       .  S
C336        H348   1.082       .  S
C337       C2265   1.492       .  S
C338       C2361   1.495       .  S
C339       C2345   1.487       .  S
C340        C433   1.490       .  S
N351        C356   1.353       .  A
N351        C355   1.349       .  A
N351        H383   1.036       .  S
N352        C359   1.349       .  A
N352        C360   1.351       .  A
N353        C358   1.351       .  A
N353        C357   1.353       .  A
N353        H384   1.039       .  S
N354        C361   1.350       .  A
N354        C362   1.348       .  A
C355        C363   1.388       .  A
C355        C371   1.414       .  A
C356        C372   1.413       .  A
C356        C364   1.386       .  A
C357        C365   1.386       .  A
C357        C374   1.413       .  A
C358        C373   1.414       .  A
C358        C366   1.387       .  A
C359        C371   1.413       .  A
C359        C367   1.389       .  A
C360        C374   1.410       .  A
C360        C368   1.386       .  A
C361        C369   1.386       .  A
C361        C372   1.410       .  A
C362        C370   1.387       .  A
C362        C373   1.410       .  A
C363        C364   1.376       .  A
C363        H375   1.082       .  S
C364        H376   1.082       .  S
C365        C366   1.379       .  A
C365        H377   1.082       .  S
C366        H378   1.082       .  S
C367        C368   1.369       .  A
C367        H379   1.082       .  S
C368        H380   1.082       .  S
C369        C370   1.371       .  A
C369        H381   1.082       .  S
C370        H382   1.082       .  S
C371        C497   1.477       .  S
C372        C465   1.489       .  S
C373        C481   1.483       .  S
C374        C513   1.488       .  S
C385        C391   1.538       .  S
C385        C389   1.559       .  S
C385       C2202   1.525       .  S
C385        C417   1.546       .  S
C386       C2201   1.527       .  S
C386        H393   1.087       .  S
C386        C387   1.363       .  D
C387       C2204   1.550   1_455  S
C387        C561   1.492       .  S
C388        C392   1.552       .  S
C388        C390   1.532       .  S
C388       C2203   1.549       .  S
C388        H394   1.111       .  S
C389        H395   1.082       .  S
C389        C390   1.366       .  D
C390        C401   1.491       .  S
C391        H396   1.084       .  S
C391        C392   1.368       .  D
C392        C577   1.498       .  S
C397        C398   1.404       .  A
C397        C402   1.404       .  A
C397        H404   1.081       .  S
C398       C2215   1.420       .  A
C399        C406   1.519       .  S
C399        C400   1.410       .  A
C399       C2214   1.421   1_455  A
C400       C2217   1.401   1_455  A
C400        H405   1.080       .  S
C401        C402   1.417       .  A
C401       C2216   1.404       .  A
C402        C403   1.516       .  S
C403        F407   1.384       .  S
C403        F408   1.380       .  S
C403        F409   1.381       .  S
C406        F410   1.383       .  S
C406        F411   1.383       .  S
C406        F412   1.384       .  S
C413        C418   1.408       .  A
C413       C2230   1.396       .  A
C413        H420   1.085   1_455  S
C414        C415   1.411       .  A
C414       C2229   1.399       .  A
C415        C422   1.521       .  S
C415        C416   1.404       .  A
C416        C417   1.413       .  A
C416        H421   1.077       .  S
C417       C2234   1.434       .  A
C418        C419   1.523       .  S
C418       C2233   1.434       .  A
C419        F423   1.383   1_455  S
C419        F424   1.385       .  S
C419        F425   1.378       .  S
C422        F426   1.381       .  S
C422        F427   1.383       .  S
C422        F428   1.384       .  S
C429        C430   1.405       .  A
C429        C434   1.404       .  A
C429        H436   1.084       .  S
C430       C2247   1.419       .  A
C431        C438   1.518       .  S
C431        C432   1.406       .  A
C431       C2246   1.426   1_455  A
C432        C433   1.398   1_455  A
C432        H437   1.084       .  S
C433       C2250   1.414       .  A
C434        C435   1.519       .  S
C434       C2249   1.417       .  A
C435        F439   1.384       .  S
C435        F440   1.382       .  S
C435        F441   1.383       .  S
C438        F442   1.382       .  S
C438        F443   1.383       .  S
C438        F444   1.385       .  S
C445        C450   1.405       .  A
C445       C2262   1.403   1_455  A
C445        H452   1.084       .  S
C446        C447   1.427       .  A
C446       C2261   1.408       .  A
C447        C454   1.520       .  S
C447        C448   1.410       .  A
C448        C449   1.401       .  A
C448        H453   1.084       .  S
C449       C2266   1.412       .  A
C449       C2153   1.493       .  S
C450        C451   1.517       .  S
C450       C2265   1.417   1_455  A
C451        F455   1.384       .  S
C451        F456   1.381       .  S
C451        F457   1.382       .  S
C454        F458   1.384       .  S
C454        F459   1.381       .  S
C454        F460   1.385       .  S
C461        C466   1.404       .  A
C461       C1370   1.409   1_545  A
C461        H468   1.082       .  S
C462        C463   1.422       .  A
C462       C1369   1.409       .  A
C463        C470   1.515       .  S
C463        C464   1.407       .  A
C464        C465   1.399       .  A
C464        H469   1.084       .  S
C465       C1374   1.414       .  A
C466        C467   1.520       .  S
C466       C1373   1.414   1_545  A
C467        F471   1.385       .  S
C467        F472   1.381       .  S
C467       F1381   1.383       .  S
C470        F475   1.384       .  S
C470        F476   1.384       .  S
C470       F1382   1.379       .  S
F473       C1375   1.383       .  S
F474       C1378   1.381       .  S
C477        C478   1.406       .  A
C477        C482   1.405       .  A
C477       H1392   1.083       .  S
C478        C479   1.420       .  A
C479        C486   1.521       .  S
C479        C480   1.403       .  A
C480        C481   1.401       .  A
C480        H485   1.084       .  S
C481        C482   1.413       .  A
C482       C1391   1.518       .  S
C483       C1390   1.519       .  S
C483        F489   1.381       .  S
C483       F1395   1.385       .  S
C483       F1396   1.383       .  S
H484       C1385   1.083       .  S
C486        F490   1.384       .  S
C486        F492   1.385       .  S
C486       F1399   1.381       .  S
F487       C1391   1.384       .  S
F488       C1391   1.383       .  S
F491       C1394   1.380       .  S
C493        C498   1.405       .  A
C493       C1402   1.409   1_545  A
C493        H500   1.080       .  S
C494        C495   1.428       .  A
C494       C1401   1.409       .  A
C495        C502   1.520       .  S
C495        C496   1.402       .  A
C496        C497   1.396       .  A
C496        H501   1.084       .  S
C497       C1406   1.410       .  A
C498        C499   1.522       .  S
C498       C1405   1.412   1_545  A
C499        F503   1.384       .  S
C499        F505   1.383       .  S
C499       F1412   1.380       .  S
C502        F506   1.376       .  S
C502        F508   1.386       .  S
C502       F1415   1.383       .  S
F504       C1407   1.380       .  S
F507       C1410   1.384       .  S
C509        C510   1.406       .  A
C509        C514   1.405       .  A
C509        H516   1.083       .  S
C510        C511   1.425       .  A
C511        C518   1.520       .  S
C511        C512   1.406       .  A
C512        C513   1.400       .  A
C512        H517   1.084       .  S
C513        C514   1.415       .  A
C514        C515   1.520       .  S
C515        F519   1.385       .  S
C515        F520   1.381       .  S
C515       F1429   1.382       .  S
C518        F522   1.382       .  S
C518       F1431   1.383       .  S
C518       F1432   1.386       .  S
F521       C1423   1.383       .  S
F523       C1426   1.383       .  S
F524       C1426   1.385       .  S
C525        C526   1.407       .  A
C525        C530   1.403       .  A
C525        H532   1.080       .  S
C526       C2343   1.423       .  A
C527        C534   1.520       .  S
C527        C528   1.410       .  A
C527       C2342   1.424   1_455  A
C528       C2345   1.401   1_455  A
C528        H533   1.083       .  S
C529        C530   1.412       .  A
C529       C2344   1.401       .  A
C529       C2155   1.488       .  S
C530        C531   1.520       .  S
C531        F535   1.384       .  S
C531        F536   1.383       .  S
C531        F537   1.381       .  S
C534        F538   1.383       .  S
C534        F539   1.383       .  S
C534        F540   1.384       .  S
C541        C542   1.411       .  A
C541        C546   1.410       .  A
C541        H548   1.082       .  S
C542       C2359   1.427       .  A
C543        C550   1.517       .  S
C543        C544   1.408       .  A
C543       C2358   1.423   1_455  A
C544       C2361   1.404   1_455  A
C544        H549   1.085       .  S
C545        C546   1.413       .  A
C545       C2360   1.396       .  A
C545       C2154   1.493       .  S
C546        C547   1.517       .  S
C547        F551   1.385       .  S
C547        F552   1.382       .  S
C547        F553   1.383       .  S
C550        F554   1.383       .  S
C550        F556   1.384       .  S
C550       F2371   1.379       .  S
F555       C2366   1.383       .  S
C557        C558   1.397       .  A
C557        C562   1.406       .  A
C557        H564   1.085       .  S
C558        C559   1.415       .  A
C559        C566   1.517       .  S
C559        C560   1.413       .  A
C560        C561   1.406       .  A
C560        H565   1.082       .  S
C561        C562   1.426       .  A
C562        C563   1.521       .  S
C563        F567   1.383       .  S
C563        F568   1.378       .  S
C563        F569   1.384       .  S
C566        F570   1.383       .  S
C566        F571   1.383       .  S
C566        F572   1.384       .  S
C573        C574   1.394       .  A
C573        C578   1.405       .  A
C573        H580   1.086       .  S
C574        C575   1.414       .  A
C575        C582   1.518       .  S
C575        C576   1.410       .  A
C576        C577   1.408       .  A
C576        H581   1.082       .  S
C577        C578   1.432       .  A
C578        C579   1.523       .  S
C579        F583   1.385       .  S
C579        F584   1.374       .  S
C579        F585   1.383       .  S
C582        F586   1.382       .  S
C582        F587   1.383       .  S
C582        F588   1.385       .  S
C589        C590   1.399       .  A
C589        C594   1.406       .  A
C589        H596   1.084       .  S
C590        C591   1.416       .  A
C591        C598   1.517       .  S
C591        C592   1.412       .  A
C592        C593   1.407       .  A
C592        H597   1.083       .  S
C593        C594   1.426       .  A
C594        C595   1.520       .  S
C595        F599   1.386       .  S
C595        F600   1.383       .  S
C595        F601   1.381       .  S
C598        F602   1.383       .  S
C598        F603   1.381       .  S
C598        F604   1.383       .  S
C605        C606   1.398       .  A
C605        C610   1.408       .  A
C605        H612   1.083       .  S
C606        C607   1.411       .  A
C607        C614   1.518       .  S
C607        C608   1.407       .  A
C608        C609   1.409       .  A
C608        H613   1.080       .  S
C609        C610   1.428       .  A
C610        C611   1.518       .  S
C611        F615   1.385       .  S
C611        F616   1.381       .  S
C611        F617   1.382       .  S
C614        F618   1.383       .  S
C614        F619   1.382       .  S
C614        F620   1.385       .  S
C621        C622   1.401       .  A
C621        C626   1.408       .  A
C621        H628   1.084       .  S
C622        C623   1.416       .  A
C623        C630   1.519       .  S
C623        C624   1.409       .  A
C624        C625   1.408       .  A
C624        H629   1.082       .  S
C625        C626   1.418       .  A
C626        C627   1.512       .  S
C627        F631   1.384       .  S
C627        F632   1.382       .  S
C627        F633   1.384       .  S
C630        F634   1.380       .  S
C630        F635   1.383       .  S
C630        F636   1.385       .  S
C637        C638   1.401       .  A
C637        C642   1.412       .  A
C637        H644   1.083       .  S
C638        C639   1.411       .  A
C639        C646   1.518       .  S
C639        C640   1.405       .  A
C640        C641   1.408       .  A
C640        H645   1.080       .  S
C641        C642   1.428       .  A
C642        C643   1.520       .  S
C643        F647   1.385       .  S
C643        F648   1.383       .  S
C643        F649   1.382       .  S
C646        F650   1.384       .  S
C646        F651   1.383       .  S
C646        F652   1.382       .  S
C653        C654   1.403       .  A
C653        C658   1.412       .  A
C653        H660   1.083       .  S
C654       C2471   1.416       .  A
C655        C662   1.519       .  S
C655        C656   1.405       .  A
C655       C2470   1.416       .  A
C656       C2473   1.406   1_455  A
C656        H661   1.085       .  S
C657        C658   1.421       .  A
C657       C2472   1.408       .  A
C658        C659   1.517       .  S
C659        F663   1.385       .  S
C659        F664   1.383       .  S
C659        F665   1.381       .  S
C662        F666   1.383       .  S
C662        F667   1.380       .  S
C662        F668   1.383       .  S
C669        C670   1.404       .  A
C669        C674   1.410       .  A
C669        H676   1.083       .  S
C670       C2487   1.421       .  A
C671        C678   1.518   1_655  S
C671        C672   1.405       .  A
C671       C2486   1.424       .  A
C672       C2489   1.397       .  A
C672        H677   1.085       .  S
C673        C674   1.416       .  A
C673       C2488   1.396       .  A
C674        C675   1.518       .  S
C675        F679   1.384       .  S
C675        F681   1.383       .  S
C675       F2496   1.383       .  S
C678        F682   1.383       .  S
C678        F684   1.384   1_455  S
C678       F2499   1.381   1_455  S
F680       C2491   1.383   1_455  S
F683       C2494   1.382       .  S
C685        C686   1.410       .  A
C685        C690   1.406       .  A
C685        H692   1.081       .  S
C686        C687   1.428       .  A
C687        C694   1.520       .  S
C687        C688   1.412       .  A
C688        C689   1.402       .  A
C688        H693   1.085       .  S
C689        C690   1.417       .  A
C690        C691   1.521       .  S
C691        F695   1.385       .  S
C691        F696   1.383       .  S
C691        F697   1.383       .  S
C694        F698   1.380       .  S
C694        F699   1.382       .  S
C694        F700   1.385       .  S
C701        C702   1.406       .  A
C701        C706   1.410       .  A
C701        H708   1.084       .  S
C702        C703   1.422       .  A
C703        C710   1.519       .  S
C703        C704   1.403       .  A
C704        C705   1.401       .  A
C704        H709   1.084       .  S
C705        C706   1.419       .  A
C706        C707   1.518       .  S
C707        F711   1.384       .  S
C707        F712   1.382       .  S
C707        F713   1.383       .  S
C710        F714   1.383       .  S
C710        F715   1.380       .  S
C710        F716   1.384       .  S
C717        C722   1.407       .  A
C717       C1626   1.404   1_545  A
C717        H724   1.082       .  S
C718        C719   1.416       .  A
C718       C1625   1.401       .  A
C719        C726   1.516       .  S
C719        C720   1.408       .  A
C720        C721   1.406       .  A
C720        H725   1.083       .  S
C721       C1630   1.419       .  A
C722        C723   1.520       .  S
C722       C1629   1.421   1_545  A
C723        F729   1.383       .  S
C723       F1635   1.385       .  S
C723       F1636   1.384       .  S
C726        F730   1.380       .  S
C726       F1639   1.380       .  S
C726       F1640   1.385       .  S
F727       C1631   1.385       .  S
F728       C1631   1.383       .  S
F731       C1634   1.379       .  S
F732       C1634   1.385       .  S
C733        C734   1.419       .  A
C733        C738   1.410       .  A
C733        H740   1.074       .  S
C734        C735   1.438       .  A
C735       C1650   1.527       .  S
C735        C736   1.410       .  A
C736        C737   1.398       .  A
C736        H741   1.085       .  S
C737        C738   1.408       .  A
C738        C739   1.519       .  S
C739        F743   1.384       .  S
C739        F744   1.383       .  S
C739       F1653   1.384       .  S
C742       C1643   1.526       .  S
C742        F747   1.382       .  S
C742        F748   1.375       .  S
C742       F1654   1.385       .  S
F745       C1647   1.384       .  S
F746       C1650   1.385       .  S
C749        C750   1.401       .  A
C749        C754   1.404       .  A
C749        H756   1.081       .  S
C750        C751   1.420       .  A
C751        C758   1.514       .  S
C751        C752   1.411       .  A
C752        C753   1.403       .  A
C752        H757   1.083       .  S
C753        C754   1.421       .  A
C754        C755   1.520       .  S
C755        F759   1.385       .  S
C755        F760   1.382       .  S
C755        F761   1.384       .  S
C758        F762   1.381       .  S
C758        F763   1.380       .  S
C758        F764   1.385       .  S
C765        C766   1.405       .  A
C765        C770   1.401       .  A
C765        H772   1.082       .  S
C766        C767   1.418       .  A
C767        C774   1.516       .  S
C767        C768   1.411       .  A
C768        C769   1.403       .  A
C768        H773   1.083       .  S
C769        C770   1.408       .  A
C770        C771   1.516       .  S
C771        F775   1.384       .  S
C771        F776   1.383       .  S
C771        F777   1.382       .  S
C774        F778   1.382       .  S
C774        F779   1.381       .  S
C774        F780   1.385       .  S
C781        C782   1.395       .  A
C781        C786   1.404       .  A
C781        H788   1.083       .  S
C782        C783   1.408       .  A
C783        C790   1.521       .  S
C783        C784   1.400       .  A
C784        C785   1.408       .  A
C784        H789   1.080       .  S
C785        C786   1.428       .  A
C786        C787   1.519       .  S
C787        F791   1.385       .  S
C787        F792   1.380       .  S
C787        F793   1.383       .  S
C790        F794   1.382       .  S
C790        F795   1.382       .  S
C790        F796   1.383       .  S
C797        C798   1.399       .  A
C797        C802   1.406       .  A
C797        H804   1.083       .  S
C798        C799   1.410       .  A
C799        C806   1.521       .  S
C799        C800   1.400       .  A
C800        C801   1.408       .  A
C800        H805   1.080       .  S
C801        C802   1.423       .  A
C802        C803   1.519       .  S
C803        F807   1.385       .  S
C803        F808   1.384       .  S
C803        F809   1.382       .  S
C806        F810   1.382       .  S
C806        F811   1.384       .  S
C806        F812   1.383       .  S
C813        C814   1.399       .  A
C813        C818   1.404       .  A
C813        H820   1.083       .  S
C814        C815   1.408       .  A
C815        C822   1.520       .  S
C815        C816   1.403       .  A
C816        C817   1.408       .  A
C816        H821   1.080       .  S
C817        C818   1.420       .  A
C818        C819   1.519       .  S
C819        F823   1.385       .  S
C819        F824   1.384       .  S
C819        F825   1.382       .  S
C822        F826   1.380       .  S
C822        F827   1.383       .  S
C822        F828   1.382       .  S
C829        C830   1.408       .  A
C829        C834   1.399       .  A
C829        H836   1.079       .  S
C830        C831   1.423       .  A
C831        C838   1.518       .  S
C831        C832   1.406       .  A
C832        C833   1.400       .  A
C832        H837   1.083       .  S
C833        C834   1.409       .  A
C834        C835   1.520       .  S
C835        F839   1.383       .  S
C835        F840   1.385       .  S
C835        F841   1.381       .  S
C838        F842   1.382       .  S
C838        F843   1.383       .  S
C838        F844   1.385       .  S
C845        C846   1.400       .  A
C845        C850   1.407       .  A
C845        H852   1.084       .  S
C846       C1755   1.414       .  A
C847        C854   1.514       .  S
C847        C848   1.407       .  A
C847       C1754   1.415   1_565  A
C848       C1757   1.401   1_565  A
C848        H853   1.083       .  S
C849        C850   1.419       .  A
C849       C1756   1.405       .  A
C850        C851   1.517       .  S
C851        F855   1.385       .  S
C851        F857   1.384       .  S
C851       F1764   1.380       .  S
C854        F858   1.377       .  S
C854        F860   1.385       .  S
C854       F1767   1.382       .  S
F856       C1759   1.380       .  S
F859       C1762   1.383       .  S
C861        C866   1.409       .  A
C861       C1770   1.406   1_565  A
C861        H868   1.083       .  S
C862        C863   1.429       .  A
C862       C1769   1.406       .  A
C863        C870   1.526       .  S
C863        C864   1.403       .  A
C864        C865   1.395       .  A
C864        H869   1.085       .  S
C865       C1774   1.416       .  A
C866        C867   1.517       .  S
C866       C1773   1.413       .  A
C867        F871   1.384       .  S
C867        F873   1.383       .  S
C867       F1780   1.382       .  S
C870        F874   1.384       .  S
C870        F876   1.383       .  S
C870       F1783   1.380       .  S
F872       C1775   1.382       .  S
F875       C1778   1.380       .  S
C877        C878   1.418       .  A
C877        C882   1.407       .  A
C877        H884   1.072       .  S
C878        C879   1.439       .  A
C879        C886   1.525       .  S
C879        C880   1.403       .  A
C880        C881   1.393       .  A
C880        H885   1.085       .  S
C881        C882   1.408       .  A
C882        C883   1.521       .  S
C883        F887   1.384       .  S
C883        F888   1.382       .  S
C883        F889   1.383       .  S
C886        F890   1.384       .  S
C886        F891   1.384       .  S
C886        F892   1.369       .  S
C893        C894   1.404       .  A
C893        C898   1.403       .  A
C893        H900   1.081       .  S
C894        C895   1.424       .  A
C895        C902   1.519       .  S
C895        C896   1.409       .  A
C896        C897   1.402       .  A
C896        H901   1.083       .  S
C897        C898   1.419       .  A
C898        C899   1.522       .  S
C899        F903   1.384       .  S
C899        F904   1.384       .  S
C899        F905   1.383       .  S
C902        F906   1.376       .  S
C902        F907   1.378       .  S
C902        F908   1.385       .  S
C909        C910   1.529       .  S
C909        C915   1.551       .  S
C909        C913   1.544       .  S
C909       C1786   1.556       .  S
C910        H917   1.087       .  S
C911        C912   1.543   1_545  S
C911       C1754   1.484       .  S
C912        C916   1.544   1_565  S
C912        C914   1.538       .  S
C912        H918   1.104       .  S
C914       C1802   1.493       .  S
C915        H920   1.075       .  S
C916       C1770   1.490       .  S
N921        C926   1.351   1_556  A
N921        C925   1.351       .  A
N921        H953   1.037       .  S
N922       C2745   1.349   1_455  A
N922        C930   1.348       .  A
N923        C928   1.349       .  A
N923        C927   1.349   1_554  A
N923        H954   1.039       .  S
N924       C2747   1.349   1_455  A
N924        C932   1.349       .  A
C925        C933   1.387       .  A
C925        C941   1.413       .  A
C926        C942   1.412       .  A
C926        C934   1.387       .  A
C927        C935   1.387       .  A
C927        C944   1.409       .  A
C928        C943   1.410       .  A
C928        C936   1.387       .  A
C929       N2738   1.350       .  A
C929        C941   1.410       .  A
C929        C937   1.386       .  A
C930        C944   1.409       .  A
C930        C938   1.387       .  A
C931       N2740   1.349       .  A
C931        C939   1.388       .  A
C931        C942   1.411       .  A
C932        C940   1.387       .  A
C932        C943   1.409       .  A
C933        C934   1.377   1_556  A
C933        H945   1.082       .  S
C934        H946   1.082       .  S
C935        C936   1.378   1_556  A
C935        H947   1.082       .  S
C936        H948   1.082       .  S
C937       C2754   1.370       .  A
C937        H949   1.082       .  S
C938       C2753   1.369   1_455  A
C938        H950   1.082       .  S
C939       C2756   1.369       .  A
C939        H951   1.082       .  S
C940       C2755   1.371   1_455  A
C940        H952   1.082       .  S
C941       C1741   1.484       .  S
C942       C1706   1.480       .  S
C943       C1690   1.480       .  S
C944       C1722   1.477       .  S
C955        C961   1.541       .  S
C955        C959   1.540       .  S
C955       C1642   1.543       .  S
C956        H963   1.087       .  S
C956        C957   1.367       .  D
C957       C1658   1.496       .  S
C958        C962   1.549       .  S
C958        C960   1.545       .  S
C958        H964   1.107       .  S
C959        H965   1.086       .  S
C959        C960   1.365       .  D
C960       C1626   1.492       .  S
C961        H966   1.082       .  S
C961        C962   1.363       .  D
C962       C1674   1.489       .  S
C967        C968   1.532       .  S
C967        C973   1.543       .  S
C967        C971   1.547       .  S
C967       C1594   1.550       .  S
C968        H975   1.085       .  S
C968       C2785   1.365       .  D
C969        C970   1.552       .  S
C969       C2784   1.369       .  D
C969       C1578   1.501       .  S
C970        C974   1.543       .  S
C970        C972   1.538       .  S
C970        H976   1.111       .  S
C971       H2793   1.081       .  S
C971       C2788   1.364   1_455  D
C972       C2787   1.364       .  D
C972       C1610   1.491       .  S
C973        H978   1.083       .  S
C973       C2790   1.370       .  D
C974       C2789   1.369       .  D
C974       C1562   1.496       .  S
H977       C2787   1.078       .  S
N979        C984   1.354   1_554  A
N979        C983   1.354       .  A
N979       H1011   1.040   1_554  S
N980        C988   1.354       .  A
N981        C986   1.353   1_554  A
N981        C985   1.354       .  A
N981       H1012   1.039       .  S
N982        C990   1.350       .  A
C983        C991   1.388       .  A
C983        C999   1.420       .  A
C984       C1000   1.417       .  A
C984        C992   1.386       .  A
C985        C993   1.387       .  A
C985       C1002   1.417       .  A
C986       C1001   1.416       .  A
C986        C994   1.387       .  A
C987        C999   1.415       .  A
C987        C995   1.387       .  A
C988       C1002   1.417       .  A
C988        C996   1.386       .  A
C989        C997   1.387       .  A
C989       C1000   1.414       .  A
C990        C998   1.388       .  A
C990       C1001   1.412       .  A
C991        C992   1.382   1_554  A
C991       H1003   1.082       .  S
C992       H1004   1.082       .  S
C993        C994   1.379   1_554  A
C993       H1005   1.082       .  S
C994       H1006   1.082       .  S
C995       H1007   1.082       .  S
C996       H1008   1.082       .  S
C997       H1009   1.082       .  S
C998       H1010   1.082       .  S
C999       C1514   1.496       .  S
C1000      C1546   1.493       .  S
C1001      C1530   1.489       .  S
C1002      C1498   1.498       .  S
C1013      N1031   1.353       .  A
C1013      C1050   1.456       .  S
C1013      C1738   1.486       .  S
N1014      N1031   1.326       .  A
N1014      N1036   1.317       .  A
N1014     Co1051   2.092       .  S
C1015      N1040   1.339       .  A
C1015      H1060   1.082       .  S
C1015      C1053   1.459       .  S
H1016      C1057   1.077       .  S
C1017      N1041   1.338       .  A
C1017      H1046   1.080       .  S
C1017      C1021   1.464       .  S
Co1018     N1036   2.061       .  S
Co1018     N1026   2.098       .  S
Co1018     N1058   2.087       .  S
Co1018     N1034   2.076       .  S
Co1018    Cl1062   2.454       .  S
N1019      C1057   1.339       .  A
N1019      N1026   1.317       .  A
N1019     Co1020   2.086       .  S
Co1020     N1023   2.075       .  S
Co1020     N1040   2.079       .  S
Co1020     N1027   2.087       .  S
Co1020    Cl1062   2.448       .  S
C1021      N1059   1.348       .  A
C1021      C1725   1.488       .  S
N1022      N1029   1.320       .  A
N1022      N1052   1.326       .  A
N1022     Co1055   2.098       .  S
N1023      N1041   1.317       .  A
N1023      N1059   1.322       .  A
N1024      C1053   1.348       .  A
N1024      N1034   1.324       .  A
H1025      C1050   1.079       .  S
N1026      N1047   1.328       .  A
N1027      N1045   1.321       .  A
N1027      N1032   1.324       .  A
C1028      N1032   1.348       .  A
C1028      C1056   1.463       .  S
C1028      C1597   1.481       .  S
N1029      C1044   1.342       .  A
N1029     Co1051   2.093       .  S
C1030      N1058   1.341       .  A
C1030      H1064   1.081       .  S
C1030      C1033   1.463       .  S
C1033      N1054   1.354       .  A
C1033      C1613   1.484       .  S
N1034      N1040   1.317       .  A
N1035      C1061   1.342       .  A
N1035      N1037   1.319       .  A
N1035     Co1051   2.089       .  S
N1036      C1050   1.334       .  A
N1037      N1065   1.323       .  A
N1037     Co1055   2.079       .  S
H1038      C1061   1.082       .  S
H1039      C1056   1.081       .  S
N1041     Co1055   2.075       .  S
N1042      N1054   1.325       .  A
N1042      N1058   1.320       .  A
N1042     Co1051   2.097       .  S
C1043      N1047   1.355       .  A
C1043      C1057   1.466       .  S
C1043      C1549   1.506       .  S
C1044      H1048   1.080       .  S
C1044      C1063   1.466       .  S
N1045      C1056   1.345       .  A
N1045     Co1055   2.100       .  S
C1049      N1065   1.348       .  A
C1049      C1061   1.466       .  S
C1049      C1661   1.491       .  S
Co1051    Cl1062   2.451       .  S
N1052      C1063   1.353       .  A
C1053      C1677   1.469       .  S
Co1055    Cl1062   2.452       .  S
C1063      C1533   1.497       .  S
C1066      N1084   1.353       .  A
C1066      C1103   1.462       .  S
C1066      C1482   1.487       .  S
N1067      N1084   1.327       .  A
N1067      N1089   1.320       .  A
N1067     Co1104   2.099       .  S
C1068      N1093   1.343       .  A
C1068      H1113   1.080       .  S
C1068      C1106   1.465       .  S
H1069      C1110   1.082       .  S
C1070      N1094   1.344       .  A
C1070      H1099   1.081       .  S
C1070      C1074   1.462       .  S
Co1071     N1089   2.085       .  S
Co1071     N1079   2.074       .  S
Co1071     N1111   2.071       .  S
Co1071     N1087   2.075       .  S
Co1071    Cl1115   2.453       .  S
N1072      C1110   1.340       .  A
N1072      N1079   1.321       .  A
N1072     Co1073   2.088       .  S
Co1073     N1076   2.094       .  S
Co1073     N1093   2.091       .  S
Co1073     N1080   2.075       .  S
Co1073    Cl1115   2.453       .  S
C1074      N1112   1.351       .  A
C1074      C1466   1.486       .  S
N1075      N1082   1.322       .  A
N1075      N1105   1.324       .  A
N1075     Co1108   2.095       .  S
N1076      N1094   1.323       .  A
N1076      N1112   1.328       .  A
N1077      C1106   1.347       .  A
N1077      N1087   1.323       .  A
H1078      C1103   1.081       .  S
N1079      N1100   1.322       .  A
N1080      N1098   1.320       .  A
N1080      N1085   1.322       .  A
C1081      N1085   1.347       .  A
C1081      C1109   1.467       .  S
C1081      C1693   1.486       .  S
N1082      C1097   1.343       .  A
N1082     Co1104   2.095       .  S
C1083      N1111   1.336       .  A
C1083      H1117   1.080       .  S
C1083      C1086   1.460       .  S
C1086      N1107   1.353       .  A
C1086      C1709   1.491       .  S
N1087      N1093   1.317       .  A
N1088      C1114   1.338       .  A
N1088      N1090   1.318       .  A
N1088     Co1104   2.083       .  S
N1089      C1103   1.343       .  A
N1090      N1118   1.330       .  A
N1090     Co1108   2.106       .  S
H1091      C1114   1.076       .  S
H1092      C1109   1.081       .  S
N1094     Co1108   2.104       .  S
N1095      N1107   1.326       .  A
N1095      N1111   1.317       .  A
N1095     Co1104   2.092       .  S
C1096      N1100   1.346       .  A
C1096      C1110   1.463       .  S
C1096      C1805   1.481       .  S
C1097      H1101   1.082       .  S
C1097      C1116   1.466       .  S
N1098      C1109   1.340       .  A
N1098     Co1108   2.089       .  S
C1102      N1118   1.358       .  A
C1102      C1114   1.461       .  S
C1102      C1501   1.499       .  S
Co1104    Cl1115   2.453       .  S
N1105      C1116   1.351       .  A
C1106      C1517   1.488       .  S
Co1108    Cl1115   2.457       .  S
C1116      C1789   1.489       .  S
C1119      N1137   1.356       .  A
C1119      C1645   1.477       .  S
N1120      N1137   1.328       .  A
N1120     Co1157   2.105       .  S
C1121      N1146   1.336       .  A
C1121      H1166   1.081       .  S
C1121      C1159   1.463       .  S
H1122      C1163   1.079       .  S
C1123      N1147   1.338       .  A
C1123      H1152   1.082       .  S
C1123      C1127   1.462       .  S
Co1124     N1142   2.084       .  S
Co1124     N1132   2.091       .  S
Co1124     N1164   2.079       .  S
Co1124     N1140   2.092       .  S
Co1124    Cl2076   2.449   1_455  S
N1125      C1163   1.347       .  A
N1125      N2948   1.318       .  A
N1125     Co1126   2.102       .  S
Co1126     N1129   2.083       .  S
Co1126     N1146   2.072       .  S
Co1126     N1133   2.096       .  S
C1127      C1629   1.487       .  S
N1128      N2951   1.320       .  A
N1128      N1158   1.329       .  A
N1128     Co1161   2.097       .  S
N1129      N1165   1.322       .  A
N1130      C2975   1.353   1_455  A
N1130      N1140   1.325       .  A
H1131      C1156   1.082       .  S
N1132      N2941   1.319   1_455  A
N1132      N1153   1.323       .  A
N1133      N1138   1.325       .  A
C1134      C1162   1.463       .  S
C1134      C1418   1.486       .  S
N1135      C1150   1.341       .  A
N1135      N2944   1.320   1_455  A
N1135     Co1157   2.088       .  S
C1136      N1164   1.338       .  A
C1136      H1170   1.080       .  S
C1139      N1160   1.350       .  A
C1139      C1402   1.488       .  S
N1140      N2962   1.318   1_455  A
N1141      C1167   1.346       .  A
N1141      N2959   1.320   1_455  A
N1141     Co1157   2.108       .  S
N1142      C1156   1.339       .  A
N1143      N2957   1.319       .  A
N1143      N1171   1.324       .  A
N1143     Co1161   2.087       .  S
H1144      C1167   1.080       .  S
H1145      C1162   1.078       .  S
N1146      N2956   1.317       .  A
N1147     Co1161   2.082       .  S
N1148      N1160   1.322       .  A
N1148     Co1157   2.082       .  S
C1149      N2969   1.350       .  A
C1149      C1163   1.473       .  S
C1149      C1565   1.495       .  S
C1150      H1154   1.081       .  S
C1150      C2985   1.458   1_455  S
N1151      C1162   1.339       .  A
N1151     Co1161   2.080       .  S
N1153      C2965   1.353   1_455  A
C1155      N1171   1.350       .  A
C1155      C2983   1.470       .  S
C1155      C1450   1.493       .  S
Co1157    Cl2984   2.450   1_455  S
N1158      C1169   1.353       .  A
C1159      N2946   1.352       .  A
C1159      C1434   1.490       .  S
Co1161    Cl1168   2.453       .  S
C1167      C2971   1.469   1_455  S
Cl1168    Co2032   2.448   1_565  S
Cl1168    Co2973   2.455       .  S
C1169      C2966   1.461       .  S
C1169      C1581   1.488       .  S
C1172      N1190   1.348       .  A
C1172      C3025   1.459       .  S
C1172      C1322   1.469       .  S
N1173      N1190   1.323       .  A
N1173      N3011   1.321       .  A
N1173     Co1210   2.085       .  S
C1174      N1199   1.343       .  A
C1174      H1219   1.076       .  S
C1174      C1212   1.472       .  S
H1175      C1216   1.081       .  S
C1176      N1200   1.336       .  A
C1176      H1205   1.082       .  S
C1176      C1180   1.464       .  S
Co1177     N1195   2.083       .  S
Co1177     N1185   2.077       .  S
Co1177     N1217   2.064       .  S
Co1177     N1193   2.081       .  S
Co1177    Cl2129   2.444   1_455  S
N1178      C1216   1.343       .  A
N1178     Co1179   2.083       .  S
Co1179     N1182   2.094       .  S
Co1179     N1199   2.092       .  S
Co1179     N1186   2.072       .  S
Co1179    Cl3037   2.465   1_455  S
C1180      N3034   1.356       .  A
C1180      C1306   1.487       .  S
N1181      N1211   1.324       .  A
N1181     Co1214   2.084       .  S
N1182      N3016   1.319   1_455  A
N1182      N1218   1.326       .  A
N1183      N1193   1.323       .  A
H1184      C1209   1.082       .  S
N1185      N1206   1.323       .  A
N1186      N3020   1.317   1_455  A
N1186      N1191   1.321       .  A
C1187      N3007   1.357       .  A
C1187      C1215   1.469       .  S
C1187      C1354   1.505       .  S
N1188      C1203   1.344       .  A
N1188     Co1210   2.103       .  S
C1189      N1217   1.335       .  A
C1189      H1223   1.077       .  S
C1189      C3008   1.456   1_455  S
N1191      C3003   1.349   1_455  A
C1192      N1213   1.358       .  A
C1192      C3005   1.461       .  S
C1192      C1338   1.496       .  S
N1194      C1220   1.337       .  A
N1194     Co1210   2.074       .  S
N1195      C1209   1.341       .  A
N1195      N2989   1.321   1_455  A
N1196      N1224   1.324       .  A
N1196     Co1214   2.082       .  S
H1197      C1220   1.078       .  S
H1198      C1215   1.074       .  S
N1200      N2998   1.320       .  A
N1200     Co1214   2.087       .  S
N1201      N1213   1.328       .  A
N1201      N3033   1.316       .  A
N1201     Co1210   2.100       .  S
C1202      C1216   1.460       .  S
C1202      C1773   1.467       .  S
C1203      H1207   1.081       .  S
N1204      C1215   1.340       .  A
N1204      N3002   1.316       .  A
N1204     Co1214   2.089       .  S
C1208      N1224   1.351       .  A
C1208      C1386   1.481       .  S
C1209      C2988   1.459       .  S
N1211      C1222   1.350       .  A
C1212      C1370   1.492       .  S
Co1214    Cl1221   2.440       .  S
N1217      N3017   1.316   1_455  A
N1218      C2996   1.355   1_455  A
Cl1221    Co2085   2.441   1_565  S
Cl1221    Co2995   2.467       .  S
C1222      C1757   1.480   1_565  S
N1225      C1230   1.355       .  A
N1225      C1229   1.350       .  A
N1225      H1257   1.040   1_655  S
N1226      C1233   1.346   1_655  A
N1226      C1234   1.350   1_655  A
N1227      C1232   1.349       .  A
N1227      C1231   1.355       .  A
N1227      H1258   1.040   1_655  S
N1228      C1235   1.352       .  A
N1228      C1236   1.348       .  A
C1229      C1237   1.388       .  A
C1229      C1245   1.413       .  A
C1230      C1246   1.415       .  A
C1230      C1238   1.386       .  A
C1231      C1239   1.386       .  A
C1231      C1248   1.414       .  A
C1232      C1247   1.413       .  A
C1232      C1240   1.388       .  A
C1233      C1245   1.410   1_455  A
C1233      C1241   1.388       .  A
C1234      C1248   1.409   1_455  A
C1234      C1242   1.385       .  A
C1235      C1243   1.385   1_655  A
C1235      C1246   1.412       .  A
C1236      C1244   1.388   1_655  A
C1236      C1247   1.411       .  A
C1237      C1238   1.378       .  A
C1237      H1249   1.082       .  S
C1238      H1250   1.082       .  S
C1239      C1240   1.379       .  A
C1239      H1251   1.082       .  S
C1240      H1252   1.082       .  S
C1241      C1242   1.372       .  A
C1241      H1253   1.082       .  S
C1242      H1254   1.082       .  S
C1243      C1244   1.373       .  A
C1243      H1255   1.082       .  S
C1244      H1256   1.082       .  S
C1245      C3173   1.476       .  S
C1246      C3269   1.497       .  S
C1247      C3253   1.480       .  S
C1248      C1341   1.493       .  S
N1259      C1264   1.354       .  A
N1259      C1263   1.350       .  A
N1259      H1291   1.034       .  S
N1260      C1267   1.350       .  A
N1260      C1268   1.351       .  A
N1261      C1266   1.352       .  A
N1261      C1265   1.352   1_565  A
N1261      H1292   1.040       .  S
N1262      C1269   1.349       .  A
N1262      C1270   1.348       .  A
C1263      C1271   1.389   1_565  A
C1263      C1279   1.418       .  A
C1264      C1280   1.416       .  A
C1264      C1272   1.386   1_565  A
C1265      C1273   1.386       .  A
C1265      C1282   1.412   1_545  A
C1266      C1281   1.413       .  A
C1266      C1274   1.387   1_565  A
C1267      C1279   1.416       .  A
C1267      C1275   1.389       .  A
C1268      C1282   1.411       .  A
C1268      C1276   1.385       .  A
C1269      C1277   1.387       .  A
C1269      C1280   1.411       .  A
C1270      C1278   1.386       .  A
C1270      C1281   1.410       .  A
C1271      C1272   1.376       .  A
C1271      H1283   1.082       .  S
C1272      H1284   1.082       .  S
C1273      C1274   1.377       .  A
C1273      H1285   1.082       .  S
C1274      H1286   1.082       .  S
C1275      C1276   1.370       .  A
C1275      H1287   1.082       .  S
C1276      H1288   1.082       .  S
C1277      C1278   1.372       .  A
C1277      H1289   1.082       .  S
C1278      H1290   1.082       .  S
C1279      C1405   1.483       .  S
C1280      C1373   1.487       .  S
C1281      C1389   1.485       .  S
C1282      C1421   1.487   1_565  S
C1293      C3110   1.521       .  S
C1293      C1299   1.539       .  S
C1293      C1297   1.556       .  S
C1293      C1325   1.544       .  S
C1294      C3109   1.533       .  S
C1294      H1301   1.082       .  S
C1294      C1295   1.365       .  D
C1295      C3112   1.554   1_455  S
C1295      C1469   1.496       .  S
C1296      C3111   1.551       .  S
C1296      C1300   1.555       .  S
C1296      C1298   1.532       .  S
C1296      H1302   1.110       .  S
C1297      H1303   1.079       .  S
C1297      C1298   1.364       .  D
C1298      C1309   1.488       .  S
C1299      H1304   1.080       .  S
C1299      C1300   1.370       .  D
C1300      C1485   1.508       .  S
C1305      C1306   1.404       .  A
C1305      C1310   1.403       .  A
C1305      H1312   1.082       .  S
C1306      C3123   1.418       .  A
C1307      C1314   1.516       .  S
C1307      C3122   1.418   1_455  A
C1307      C1308   1.407       .  A
C1308      C3125   1.401   1_455  A
C1308      H1313   1.082       .  S
C1309      C3124   1.405       .  A
C1309      C1310   1.416       .  A
C1310      C1311   1.519       .  S
C1311      F1315   1.385       .  S
C1311      F1316   1.380       .  S
C1311      F1317   1.381       .  S
C1314      F1318   1.382       .  S
C1314      F1319   1.383       .  S
C1314      F1320   1.385       .  S
C1321      C3138   1.395       .  A
C1321      C1326   1.408       .  A
C1321      H1328   1.085       .  S
C1322      C3137   1.395       .  A
C1322      C1323   1.408       .  A
C1323      C1330   1.522       .  S
C1323      C1324   1.402       .  A
C1324      C1325   1.415       .  A
C1324      H1329   1.073       .  S
C1325      C3142   1.436       .  A
C1326      C1327   1.524       .  S
C1326      C3141   1.434       .  A
C1327      F1331   1.385       .  S
C1327      F1332   1.382       .  S
C1327      F1333   1.379       .  S
C1330      F1334   1.382       .  S
C1330      F1335   1.383       .  S
C1330      F1336   1.385       .  S
C1337      C1338   1.408       .  A
C1337      C1342   1.410       .  A
C1337      H1344   1.083       .  S
C1338      C3155   1.427       .  A
C1339      C1346   1.521       .  S
C1339      C3154   1.425   1_455  A
C1339      C1340   1.409       .  A
C1340      C1341   1.402   1_455  A
C1340      H1345   1.084       .  S
C1341      C3158   1.420       .  A
C1342      C1343   1.519       .  S
C1342      C3157   1.416       .  A
C1343      F1347   1.385       .  S
C1343      F1348   1.381       .  S
C1343      F1349   1.383       .  S
C1346      F1350   1.382       .  S
C1346      F1351   1.383       .  S
C1346      F1352   1.385       .  S
C1353      C3170   1.410   1_455  A
C1353      C1358   1.403       .  A
C1353      H1360   1.082       .  S
C1354      C3169   1.412       .  A
C1354      C1355   1.430       .  A
C1355      C1362   1.519       .  S
C1355      C1356   1.410       .  A
C1356      C1357   1.398       .  A
C1356      H1361   1.083       .  S
C1357      C3174   1.411       .  A
C1357      C3061   1.493       .  S
C1358      C1359   1.519       .  S
C1358      C3173   1.407   1_455  A
C1359      F1363   1.379       .  S
C1359      F1364   1.382       .  S
C1359      F1365   1.382       .  S
C1362      F1366   1.383       .  S
C1362      F1367   1.381       .  S
C1362      F1368   1.385       .  S
C1369      C1374   1.407       .  A
C1369      H1376   1.083       .  S
C1370      C1371   1.422       .  A
C1371      C1378   1.511       .  S
C1371      C1372   1.406       .  A
C1372      C1373   1.397       .  A
C1372      H1377   1.084       .  S
C1374      C1375   1.520       .  S
C1375      F1379   1.384       .  S
C1375      F1380   1.381       .  S
C1378      F1383   1.383       .  S
C1378      F1384   1.386       .  S
C1385      C1386   1.407       .  A
C1385      C1390   1.407       .  A
C1386      C1387   1.420   1_565  A
C1387      C1394   1.520       .  S
C1387      C1388   1.403       .  A
C1388      C1389   1.400   1_545  A
C1388      H1393   1.084       .  S
C1389      C1390   1.413       .  A
C1391      F1397   1.381       .  S
C1394      F1398   1.383       .  S
C1394      F1400   1.385       .  S
C1401      C1406   1.402       .  A
C1401      H1408   1.079       .  S
C1402      C1403   1.423       .  A
C1403      C1410   1.520       .  S
C1403      C1404   1.403       .  A
C1404      C1405   1.399       .  A
C1404      H1409   1.083       .  S
C1406      C1407   1.521       .  S
C1407      F1411   1.384       .  S
C1407      F1413   1.383       .  S
C1410      F1414   1.379       .  S
C1410      F1416   1.384       .  S
C1417      C1418   1.407   1_545  A
C1417      C1422   1.406       .  A
C1417      H1424   1.083       .  S
C1418      C1419   1.422       .  A
C1419      C1426   1.519       .  S
C1419      C1420   1.405       .  A
C1420      C1421   1.400   1_565  A
C1420      H1425   1.084       .  S
C1421      C1422   1.414       .  A
C1422      C1423   1.519       .  S
C1423      F1427   1.385       .  S
C1423      F1428   1.381       .  S
C1426      F1430   1.382       .  S
C1433      C1434   1.407       .  A
C1433      C1438   1.403       .  A
C1433      H1440   1.080       .  S
C1434      C3251   1.423       .  A
C1435      C1442   1.519       .  S
C1435      C3250   1.424   1_455  A
C1435      C1436   1.406       .  A
C1436      C3253   1.398   1_455  A
C1436      H1441   1.083       .  S
C1437      C3252   1.400       .  A
C1437      C1438   1.412       .  A
C1437      C3063   1.486       .  S
C1438      C1439   1.520       .  S
C1439      F1443   1.385       .  S
C1439      F1444   1.382       .  S
C1439      F1445   1.382       .  S
C1442      F1446   1.383       .  S
C1442      F1447   1.382       .  S
C1442      F1448   1.385       .  S
C1449      C1450   1.404       .  A
C1449      C1454   1.407       .  A
C1449      H1456   1.085       .  S
C1450      C3267   1.420       .  A
C1451      C1458   1.515       .  S
C1451      C3266   1.419   1_455  A
C1451      C1452   1.407       .  A
C1452      C3269   1.402   1_455  A
C1452      H1457   1.084       .  S
C1453      C3268   1.403       .  A
C1453      C1454   1.422       .  A
C1453      C3062   1.500       .  S
C1454      C1455   1.518       .  S
C1455      F1459   1.384       .  S
C1455      F1460   1.383       .  S
C1455      F1461   1.381       .  S
C1458      F1462   1.379       .  S
C1458      F3279   1.383       .  S
C1458      F1464   1.385       .  S
F1463      C3274   1.383       .  S
C1465      C1466   1.398       .  A
C1465      C1470   1.408       .  A
C1465      H1472   1.085       .  S
C1466      C1467   1.417       .  A
C1467      C1474   1.516       .  S
C1467      C1468   1.414       .  A
C1468      C1469   1.405       .  A
C1468      H1473   1.082       .  S
C1469      C1470   1.426       .  A
C1470      C1471   1.519       .  S
C1471      F1475   1.383       .  S
C1471      F1476   1.379       .  S
C1471      F1477   1.384       .  S
C1474      F1478   1.382       .  S
C1474      F1479   1.383       .  S
C1474      F1480   1.385       .  S
C1481      C1482   1.398       .  A
C1481      C1486   1.410       .  A
C1481      H1488   1.084       .  S
C1482      C1483   1.417       .  A
C1483      C1490   1.518       .  S
C1483      C1484   1.411       .  A
C1484      C1485   1.407       .  A
C1484      H1489   1.081       .  S
C1485      C1486   1.434       .  A
C1486      C1487   1.524       .  S
C1487      F1491   1.386       .  S
C1487      F1492   1.379       .  S
C1487      F1493   1.382       .  S
C1490      F1494   1.382       .  S
C1490      F1495   1.383       .  S
C1490      F1496   1.385       .  S
C1497      C1498   1.399       .  A
C1497      C1502   1.409       .  A
C1497      H1504   1.084       .  S
C1498      C1499   1.414       .  A
C1499      C1506   1.517       .  S
C1499      C1500   1.414       .  A
C1500      C1501   1.408       .  A
C1500      H1505   1.083       .  S
C1501      C1502   1.428       .  A
C1502      C1503   1.519       .  S
C1503      F1507   1.385       .  S
C1503      F1508   1.383       .  S
C1503      F1509   1.381       .  S
C1506      F1510   1.383       .  S
C1506      F1511   1.382       .  S
C1506      F1512   1.380       .  S
C1513      C1514   1.403       .  A
C1513      C1518   1.408       .  A
C1513      H1520   1.083       .  S
C1514      C1515   1.416       .  A
C1515      C1522   1.518       .  S
C1515      C1516   1.408       .  A
C1516      C1517   1.405       .  A
C1516      H1521   1.082       .  S
C1517      C1518   1.422       .  A
C1518      C1519   1.521       .  S
C1519      F1523   1.385       .  S
C1519      F1524   1.382       .  S
C1519      F1525   1.384       .  S
C1522      F1526   1.381       .  S
C1522      F1527   1.383       .  S
C1522      F1528   1.385       .  S
C1529      C1530   1.396       .  A
C1529      C1534   1.408       .  A
C1529      H1536   1.083       .  S
C1530      C1531   1.413       .  A
C1531      C1538   1.519       .  S
C1531      C1532   1.410       .  A
C1532      C1533   1.410       .  A
C1532      H1537   1.081       .  S
C1533      C1534   1.424       .  A
C1534      C1535   1.515       .  S
C1535      F1539   1.382       .  S
C1535      F1540   1.382       .  S
C1535      F1541   1.383       .  S
C1538      F1542   1.382       .  S
C1538      F1543   1.383       .  S
C1538      F1544   1.384       .  S
C1545      C1546   1.401       .  A
C1545      C1550   1.413       .  A
C1545      H1552   1.083       .  S
C1546      C1547   1.411       .  A
C1547      C1554   1.520       .  S
C1547      C1548   1.408       .  A
C1548      C1549   1.412       .  A
C1548      H1553   1.079       .  S
C1549      C1550   1.428       .  A
C1550      C1551   1.518       .  S
C1551      F1555   1.385       .  S
C1551      F1556   1.383       .  S
C1551      F1557   1.382       .  S
C1554      F1558   1.384       .  S
C1554      F1559   1.383       .  S
C1554      F1560   1.383       .  S
C1561      C1562   1.405       .  A
C1561      C1566   1.414       .  A
C1561      H1568   1.082       .  S
C1562      C3379   1.417       .  A
C1563      C1570   1.516       .  S
C1563      C3378   1.417       .  A
C1563      C1564   1.405       .  A
C1564      C3381   1.405   1_455  A
C1564      H1569   1.083       .  S
C1565      C3380   1.407       .  A
C1565      C1566   1.420       .  A
C1566      C1567   1.517       .  S
C1567      F1571   1.385       .  S
C1567      F1572   1.384       .  S
C1567      F1573   1.380       .  S
C1570      F1574   1.377       .  S
C1570      F1575   1.381       .  S
C1570      F1576   1.385       .  S
C1577      C1578   1.406       .  A
C1577      C1582   1.414       .  A
C1577      H1584   1.082       .  S
C1578      C3395   1.426       .  A
C1579      C1586   1.517       .  S
C1579      C3394   1.420       .  A
C1579      C1580   1.406       .  A
C1580      C3397   1.398       .  A
C1580      H1585   1.084       .  S
C1581      C3396   1.400       .  A
C1581      C1582   1.417       .  A
C1582      C1583   1.516       .  S
C1583      F1587   1.384       .  S
C1583      F3404   1.383       .  S
C1583      F1589   1.383       .  S
C1586      F1590   1.382   1_655  S
C1586      F3407   1.383       .  S
C1586      F1592   1.385       .  S
F1588      C3399   1.383   1_455  S
F1591      C3402   1.382       .  S
C1593      C1594   1.414       .  A
C1593      C1598   1.406       .  A
C1593      H1600   1.079       .  S
C1594      C1595   1.432       .  A
C1595      C1602   1.519       .  S
C1595      C1596   1.411       .  A
C1596      C1597   1.399       .  A
C1596      H1601   1.085       .  S
C1597      C1598   1.412       .  A
C1598      C1599   1.520       .  S
C1599      F1603   1.385       .  S
C1599      F1604   1.382       .  S
C1599      F1605   1.383       .  S
C1602      F1606   1.379       .  S
C1602      F1607   1.382       .  S
C1602      F1608   1.385       .  S
C1609      C1610   1.405       .  A
C1609      C1614   1.410       .  A
C1609      H1616   1.084       .  S
C1610      C1611   1.424       .  A
C1611      C1618   1.520       .  S
C1611      C1612   1.402       .  A
C1612      C1613   1.400       .  A
C1612      H1617   1.084       .  S
C1613      C1614   1.420       .  A
C1614      C1615   1.517       .  S
C1615      F1619   1.384       .  S
C1615      F1620   1.382       .  S
C1615      F1621   1.382       .  S
C1618      F1622   1.383       .  S
C1618      F1623   1.380       .  S
C1618      F1624   1.385       .  S
C1625      C1630   1.400       .  A
C1625      H1632   1.080       .  S
C1626      C1627   1.416       .  A
C1627      C1634   1.514       .  S
C1627      C1628   1.405       .  A
C1628      C1629   1.404       .  A
C1628      H1633   1.082       .  S
C1630      C1631   1.520       .  S
C1631      F1637   1.383       .  S
C1634      F1638   1.380       .  S
C1641      C1642   1.420       .  A
C1641      C1646   1.409       .  A
C1641      H1648   1.075       .  S
C1642      C1643   1.432   1_565  A
C1643      C1644   1.401       .  A
C1644      C1645   1.398   1_545  A
C1644      H1649   1.085       .  S
C1645      C1646   1.408       .  A
C1646      C1647   1.520       .  S
C1647      F1651   1.385       .  S
C1647      F1652   1.382       .  S
C1650      F1655   1.383       .  S
C1650      F1656   1.375       .  S
C1657      C1658   1.403       .  A
C1657      C1662   1.407       .  A
C1657      H1664   1.083       .  S
C1658      C1659   1.420       .  A
C1659      C1666   1.514       .  S
C1659      C1660   1.409       .  A
C1660      C1661   1.403       .  A
C1660      H1665   1.082       .  S
C1661      C1662   1.423       .  A
C1662      C1663   1.520       .  S
C1663      F1667   1.385       .  S
C1663      F1668   1.383       .  S
C1663      F1669   1.383       .  S
C1666      F1670   1.378       .  S
C1666      F1671   1.380       .  S
C1666      F1672   1.385       .  S
C1673      C1674   1.406       .  A
C1673      C1678   1.402       .  A
C1673      H1680   1.081       .  S
C1674      C1675   1.417       .  A
C1675      C1682   1.513       .  S
C1675      C1676   1.409       .  A
C1676      C1677   1.401       .  A
C1676      H1681   1.083       .  S
C1677      C1678   1.408       .  A
C1678      C1679   1.516       .  S
C1679      F1683   1.384       .  S
C1679      F1684   1.383       .  S
C1679      F1685   1.382       .  S
C1682      F1686   1.381       .  S
C1682      F1687   1.381       .  S
C1682      F1688   1.384       .  S
C1689      C1690   1.398       .  A
C1689      C1694   1.405       .  A
C1689      H1696   1.083       .  S
C1690      C1691   1.410       .  A
C1691      C1698   1.517       .  S
C1691      C1692   1.403       .  A
C1692      C1693   1.406       .  A
C1692      H1697   1.081       .  S
C1693      C1694   1.426       .  A
C1694      C1695   1.520       .  S
C1695      F1699   1.385       .  S
C1695      F1700   1.382       .  S
C1695      F1701   1.383       .  S
C1698      F1702   1.381       .  S
C1698      F1703   1.383       .  S
C1698      F1704   1.381       .  S
C1705      C1706   1.398       .  A
C1705      C1710   1.407       .  A
C1705      H1712   1.083       .  S
C1706      C1707   1.410       .  A
C1707      C1714   1.521       .  S
C1707      C1708   1.402       .  A
C1708      C1709   1.410       .  A
C1708      H1713   1.079       .  S
C1709      C1710   1.424       .  A
C1710      C1711   1.518       .  S
C1711      F1715   1.385       .  S
C1711      F1716   1.383       .  S
C1711      F1717   1.381       .  S
C1714      F1718   1.382       .  S
C1714      F1719   1.385       .  S
C1714      F1720   1.383       .  S
C1721      C1722   1.396       .  A
C1721      C1726   1.405       .  A
C1721      H1728   1.083       .  S
C1722      C1723   1.409       .  A
C1723      C1730   1.520       .  S
C1723      C1724   1.402       .  A
C1724      C1725   1.408       .  A
C1724      H1729   1.080       .  S
C1725      C1726   1.427       .  A
C1726      C1727   1.520       .  S
C1727      F1731   1.385       .  S
C1727      F1732   1.384       .  S
C1727      F1733   1.380       .  S
C1730      F1734   1.382       .  S
C1730      F1735   1.382       .  S
C1730      F1736   1.381       .  S
C1737      C1738   1.408       .  A
C1737      C1742   1.403       .  A
C1737      H1744   1.081       .  S
C1738      C1739   1.421       .  A
C1739      C1746   1.518       .  S
C1739      C1740   1.406       .  A
C1740      C1741   1.400       .  A
C1740      H1745   1.083       .  S
C1741      C1742   1.413       .  A
C1742      C1743   1.521       .  S
C1743      F1747   1.385       .  S
C1743      F1748   1.381       .  S
C1743      F1749   1.383       .  S
C1746      F1750   1.382       .  S
C1746      F1751   1.384       .  S
C1746      F1752   1.384       .  S
C1753      C1754   1.401       .  A
C1753      C1758   1.408       .  A
C1753      H1760   1.084       .  S
C1755      C1762   1.515       .  S
C1755      C1756   1.410       .  A
C1756      H1761   1.083       .  S
C1757      C1758   1.421       .  A
C1758      C1759   1.519       .  S
C1759      F1763   1.385       .  S
C1759      F1765   1.384       .  S
C1762      F1766   1.379       .  S
C1762      F1768   1.384       .  S
C1769      C1774   1.412       .  A
C1769      H1776   1.083       .  S
C1770      C1771   1.429       .  A
C1771      C1778   1.525       .  S
C1771      C1772   1.400       .  A
C1772      C1773   1.393   1_545  A
C1772      H1777   1.085       .  S
C1774      C1775   1.517       .  S
C1775      F1779   1.385       .  S
C1775      F1781   1.383       .  S
C1778      F1782   1.385       .  S
C1778      F1784   1.383       .  S
C1785      C1786   1.418       .  A
C1785      C1790   1.408       .  A
C1785      H1792   1.067       .  S
C1786      C1787   1.440       .  A
C1787      C1794   1.527       .  S
C1787      C1788   1.411       .  A
C1788      C1789   1.398       .  A
C1788      H1793   1.085       .  S
C1789      C1790   1.411       .  A
C1790      C1791   1.523       .  S
C1791      F1795   1.385       .  S
C1791      F1796   1.382       .  S
C1791      F1797   1.384       .  S
C1794      F1798   1.384       .  S
C1794      F1799   1.370       .  S
C1794      F1800   1.384       .  S
C1801      C1802   1.404       .  A
C1801      C1806   1.402       .  A
C1801      H1808   1.079       .  S
C1802      C1803   1.423       .  A
C1803      C1810   1.517       .  S
C1803      C1804   1.407       .  A
C1804      C1805   1.401       .  A
C1804      H1809   1.083       .  S
C1805      C1806   1.419       .  A
C1806      C1807   1.521       .  S
C1807      F1811   1.386       .  S
C1807      F1812   1.383       .  S
C1807      F1813   1.382       .  S
C1810      F1814   1.375       .  S
C1810      F1815   1.380       .  S
C1810      F1816   1.385       .  S
C1817      C1818   1.527       .  S
C1817      C1823   1.550       .  S
C1817      C1821   1.545       .  S
C1817      C2694   1.547       .  S
C1818      H1825   1.087       .  S
C1818      C2727   1.361       .  D
C1819      C1820   1.538       .  S
C1819      C2726   1.363       .  D
C1819      C2662   1.486       .  S
C1820      C1824   1.545       .  S
C1820      C1822   1.536       .  S
C1820      H1826   1.102       .  S
C1821      H2735   1.086       .  S
C1821      C2730   1.369   1_545  D
C1822      C2729   1.375       .  D
C1822      C2710   1.500       .  S
C1823      H1828   1.076       .  S
C1823      C2732   1.365       .  D
C1824      C2731   1.367       .  D
C1824      C2678   1.496       .  S
H1827      C2729   1.086       .  S
N1829      C1834   1.347       .  A
N1829      C1833   1.347   1_554  A
N1829      H1861   1.039       .  S
N1830      C1838   1.350       .  A
N1831      C1836   1.353   1_556  A
N1831      C1835   1.352       .  A
N1831      H1862   1.035       .  S
N1832      C1840   1.350       .  A
C1833      C1841   1.387       .  A
C1833      C1849   1.407       .  A
C1834      C1850   1.405       .  A
C1834      C1842   1.386       .  A
C1835      C1843   1.387       .  A
C1835      C1852   1.414       .  A
C1836      C1851   1.415       .  A
C1836      C1844   1.388       .  A
C1837      C1849   1.405       .  A
C1837      C1845   1.386       .  A
C1838      C1852   1.412       .  A
C1838      C1846   1.387       .  A
C1839      C1847   1.386       .  A
C1839      C1850   1.403       .  A
C1840      C1848   1.387       .  A
C1840      C1851   1.413       .  A
C1841      C1842   1.376   1_556  A
C1841      H1853   1.082       .  S
C1842      H1854   1.082       .  S
C1843      C1844   1.375   1_556  A
C1843      H1855   1.082       .  S
C1844      H1856   1.082       .  S
C1845      H1857   1.082       .  S
C1846      H1858   1.082       .  S
C1847      H1859   1.082       .  S
C1848      H1860   1.082       .  S
C1849      C2649   1.472       .  S
C1850      C2614   1.470       .  S
C1851      C2598   1.484       .  S
C1852      C2630   1.482       .  S
C1863      C2772   1.535       .  S
C1863      C1869   1.548       .  S
C1863      C1867   1.538       .  S
C1863      C2550   1.549       .  S
C1864      C2771   1.529   1_545  S
C1864      H1871   1.087       .  S
C1864      C1865   1.362       .  D
C1865      C2774   1.545   1_545  S
C1865      C2566   1.486       .  S
C1866      C2773   1.548       .  S
C1866      C1870   1.546       .  S
C1866      C1868   1.547       .  S
C1866      H1872   1.104       .  S
C1867      H1873   1.086       .  S
C1867      C1868   1.362       .  D
C1868      C2534   1.496       .  S
C1869      H1874   1.082       .  S
C1869      C1870   1.370       .  D
C1870      C2582   1.495       .  S
C1875      C1876   1.526       .  S
C1875      C1881   1.545       .  S
C1875      C1879   1.552       .  S
C1875      C2502   1.549       .  S
C1876      H1883   1.086       .  S
C1877      C1878   1.549   1_455  S
C1877      C2486   1.496   1_455  S
C1878      C1882   1.537   1_655  S
C1878      C1880   1.542       .  S
C1878      H1884   1.110       .  S
C1880      C2518   1.494       .  S
C1881      H1886   1.083       .  S
C1882      C2470   1.482       .  S
N1887      C1892   1.353   1_554  A
N1887      C1891   1.352       .  A
N1887      H1919   1.040       .  S
N1888      C2803   1.352   1_545  A
N1888      C1896   1.351       .  A
N1889      C1894   1.353   1_554  A
N1889      C1893   1.352       .  A
N1889      H1920   1.040       .  S
N1890      C2805   1.351   1_545  A
N1890      C1898   1.352       .  A
C1891      C1899   1.388       .  A
C1891      C1907   1.415       .  A
C1892      C1908   1.413       .  A
C1892      C1900   1.386       .  A
C1893      C1901   1.388       .  A
C1893      C1910   1.414       .  A
C1894      C1909   1.414       .  A
C1894      C1902   1.386       .  A
C1895      N2796   1.351       .  A
C1895      C1907   1.415       .  A
C1895      C1903   1.387       .  A
C1896      C1910   1.415       .  A
C1896      C1904   1.388       .  A
C1897      N2798   1.353       .  A
C1897      C1905   1.386       .  A
C1897      C1908   1.414       .  A
C1898      C1906   1.386       .  A
C1898      C1909   1.415       .  A
C1899      C1900   1.379   1_554  A
C1899      H1911   1.082       .  S
C1900      H1912   1.082       .  S
C1901      C1902   1.378   1_554  A
C1901      H1913   1.082       .  S
C1902      H1914   1.082       .  S
C1903      C2812   1.373       .  A
C1903      H1915   1.082       .  S
C1904      C2811   1.371   1_545  A
C1904      H1916   1.082       .  S
C1905      C2814   1.373       .  A
C1905      H1917   1.082       .  S
C1906      C2813   1.375   1_545  A
C1906      H1918   1.082       .  S
C1907      C2422   1.488       .  S
C1908      C2454   1.495       .  S
C1909      C2438   1.492       .  S
C1910      C2406   1.488       .  S
C1921      N1939   1.349       .  A
C1921      C1958   1.463       .  S
C1921      C2646   1.487       .  S
N1922      N1939   1.324       .  A
N1922      N1944   1.317       .  A
N1922     Co1959   2.077       .  S
C1923      N1948   1.338       .  A
C1923      H1968   1.081       .  S
C1923      C1961   1.457       .  S
H1924      C1965   1.080       .  S
C1925      N1949   1.335       .  A
C1925      H1954   1.080       .  S
C1925      C1929   1.463       .  S
Co1926     N1944   2.078       .  S
Co1926     N1934   2.089       .  S
Co1926     N1966   2.090       .  S
Co1926     N1942   2.085       .  S
Co1926    Cl1970   2.453       .  S
N1927      C1965   1.341       .  A
N1927      N1934   1.319       .  A
N1927     Co1928   2.094       .  S
Co1928     N1931   2.082       .  S
Co1928     N1948   2.085       .  S
Co1928     N1935   2.098       .  S
Co1928    Cl1970   2.452       .  S
C1929      N1967   1.352       .  A
C1929      C2633   1.492       .  S
N1930      N1937   1.319       .  A
N1930      N1960   1.327       .  A
N1930     Co1963   2.098       .  S
N1931      N1949   1.317       .  A
N1931      N1967   1.324       .  A
N1932      C1961   1.350       .  A
N1932      N1942   1.326       .  A
H1933      C1958   1.080       .  S
N1934      N1955   1.326       .  A
N1935      N1953   1.322       .  A
N1935      N1940   1.327       .  A
C1936      N1940   1.352       .  A
C1936      C1964   1.460       .  S
C1936      C2505   1.483       .  S
N1937      C1952   1.338       .  A
N1937     Co1959   2.082       .  S
C1938      N1966   1.340       .  A
C1938      H1972   1.080       .  S
C1938      C1941   1.462       .  S
C1941      N1962   1.353       .  A
C1941      C2521   1.482       .  S
N1942      N1948   1.320       .  A
N1943      C1969   1.342       .  A
N1943      N1945   1.320       .  A
N1943     Co1959   2.078       .  S
N1944      C1958   1.337       .  A
N1945      N1973   1.321       .  A
N1945     Co1963   2.077       .  S
H1946      C1969   1.082       .  S
H1947      C1964   1.082       .  S
N1949     Co1963   2.069       .  S
N1950      N1962   1.325       .  A
N1950      N1966   1.320       .  A
N1950     Co1959   2.089       .  S
C1951      N1955   1.351       .  A
C1951      C1965   1.467       .  S
C1951      C2457   1.498       .  S
C1952      H1956   1.080       .  S
C1952      C1971   1.460       .  S
N1953      C1964   1.343       .  A
N1953     Co1963   2.095       .  S
C1957      N1973   1.346       .  A
C1957      C1969   1.461       .  S
C1957      C2569   1.479       .  S
Co1959    Cl1970   2.457       .  S
N1960      C1971   1.354       .  A
C1961      C2585   1.472       .  S
Co1963    Cl1970   2.446       .  S
C1971      C2441   1.491       .  S
C1974      N1992   1.345       .  A
C1974      C2011   1.463       .  S
C1974      C2390   1.475       .  S
N1975      N1992   1.321       .  A
N1975      N1997   1.319       .  A
N1975     Co2012   2.067       .  S
C1976      N2001   1.341       .  A
C1976      H2021   1.081       .  S
C1976      C2014   1.463       .  S
H1977      C2018   1.082       .  S
C1978      N2002   1.339       .  A
C1978      H2007   1.081       .  S
C1978      C1982   1.455       .  S
Co1979     N1997   2.091       .  S
Co1979     N1987   2.070       .  S
Co1979     N2019   2.065       .  S
Co1979     N1995   2.078       .  S
Co1979    Cl2023   2.446       .  S
N1980      C2018   1.342       .  A
N1980      N1987   1.322       .  A
N1980     Co1981   2.103       .  S
Co1981     N1984   2.087       .  S
Co1981     N2001   2.081       .  S
Co1981     N1988   2.100       .  S
Co1981    Cl2023   2.451       .  S
C1982      N2020   1.349       .  A
C1982      C2374   1.474       .  S
N1983      N1990   1.319       .  A
N1983      N2013   1.323       .  A
N1983     Co2016   2.083       .  S
N1984      N2002   1.321       .  A
N1984      N2020   1.327       .  A
N1985      C2014   1.347       .  A
N1985      N1995   1.323       .  A
H1986      C2011   1.081       .  S
N1987      N2008   1.321       .  A
N1988      N2006   1.318       .  A
N1988      N1993   1.324       .  A
C1989      N1993   1.354       .  A
C1989      C2017   1.465       .  S
C1989      C2601   1.499       .  S
N1990      C2005   1.338       .  A
N1990     Co2012   2.083       .  S
C1991      N2019   1.333       .  A
C1991      H2025   1.080       .  S
C1991      C1994   1.461       .  S
C1994      N2015   1.349       .  A
C1994      C2617   1.483       .  S
N1995      N2001   1.318       .  A
N1996      C2022   1.333       .  A
N1996      N1998   1.316       .  A
N1996     Co2012   2.060       .  S
N1997      C2011   1.345       .  A
N1998      N2026   1.326       .  A
N1998     Co2016   2.087       .  S
H1999      C2022   1.075       .  S
H2000      C2017   1.080       .  S
N2002     Co2016   2.082       .  S
N2003      N2015   1.323       .  A
N2003      N2019   1.317       .  A
N2003     Co2012   2.079       .  S
C2004      N2008   1.345       .  A
C2004      C2018   1.466       .  S
C2004      C2713   1.480       .  S
C2005      H2009   1.082       .  S
C2005      C2024   1.464       .  S
N2006      C2017   1.339       .  A
N2006     Co2016   2.075       .  S
C2010      N2026   1.354       .  A
C2010      C2022   1.454       .  S
C2010      C2409   1.480       .  S
Co2012    Cl2023   2.445       .  S
N2013      C2024   1.350       .  A
C2014      C2425   1.486       .  S
Co2016    Cl2023   2.451       .  S
C2024      C2697   1.479       .  S
C2027      N2045   1.354       .  A
C2027      C2972   1.459       .  S
C2027      C2553   1.483       .  S
N2028      N2045   1.327       .  A
N2028      N2958   1.320       .  A
N2028     Co2065   2.100       .  S
C2029      N2054   1.337       .  A
C2029      H2074   1.081       .  S
C2029      C2067   1.464       .  S
H2030      C2071   1.079       .  S
C2031      N2055   1.342       .  A
C2031      H2060   1.082       .  S
C2031      C2035   1.468       .  S
Co2032     N2050   2.072       .  S
Co2032     N2040   2.087       .  S
Co2032     N2072   2.074       .  S
Co2032     N2048   2.085       .  S
N2033      C2071   1.343       .  A
N2033     Co2034   2.088       .  S
Co2034     N2037   2.086       .  S
Co2034     N2054   2.079       .  S
Co2034     N2041   2.079       .  S
Co2034    Cl2984   2.447   1_545  S
C2035      N2981   1.349       .  A
C2035      C2537   1.493       .  S
N2036      N2066   1.329       .  A
N2036     Co2069   2.102       .  S
N2037      N2963   1.321   1_545  A
N2037      N2073   1.322       .  A
N2038      N2048   1.326       .  A
H2039      C2064   1.082       .  S
N2040      N2061   1.324       .  A
N2041      N2967   1.318   1_545  A
N2041      N2046   1.324       .  A
C2042      N2954   1.350       .  A
C2042      C2070   1.459       .  S
C2042      C2326   1.481       .  S
N2043      C2058   1.340       .  A
N2043     Co2065   2.081       .  S
C2044      N2072   1.337       .  A
C2044      H2078   1.080       .  S
C2044      C2955   1.463   1_545  S
N2046      C2950   1.350       .  A
C2047      N2068   1.350       .  A
C2047      C2952   1.463       .  S
C2047      C2310   1.489       .  S
N2049      C2075   1.345       .  A
N2049     Co2065   2.104       .  S
N2050      C2064   1.334       .  A
N2050      N2936   1.321   1_545  A
N2051      N2079   1.323       .  A
N2051     Co2069   2.082       .  S
H2052      C2075   1.077       .  S
H2053      C2070   1.080       .  S
N2055      N2945   1.321       .  A
N2055     Co2069   2.093       .  S
N2056      N2068   1.323       .  A
N2056      N2980   1.318       .  A
N2056     Co2065   2.082       .  S
C2057      C2071   1.468       .  S
C2057      C2473   1.487       .  S
C2058      H2062   1.081       .  S
N2059      C2070   1.340       .  A
N2059      N2949   1.317       .  A
N2059     Co2069   2.084       .  S
C2063      N2079   1.350       .  A
C2063      C2358   1.486       .  S
C2064      C2935   1.458   1_545  S
N2066      C2077   1.352       .  A
C2067      C2342   1.491       .  S
Co2069    Cl2076   2.453       .  S
N2072      N2964   1.317   1_545  A
N2073      C2943   1.349   1_545  A
Cl2076    Co2942   2.454       .  S
C2077      C2489   1.482       .  S
C2080      N2098   1.351   1_455  A
C2080      C2230   1.474       .  S
N2081      N2098   1.325       .  A
N2081     Co2118   2.088       .  S
C2082      N2107   1.340       .  A
C2082      H2127   1.077       .  S
C2082      C2120   1.468       .  S
H2083      C2124   1.081       .  S
C2084      N2108   1.336       .  A
C2084      H2113   1.081       .  S
C2084      C2088   1.463       .  S
Co2085     N2103   2.087       .  S
Co2085     N2093   2.076   1_545  S
Co2085     N2125   2.081       .  S
Co2085     N2101   2.079   1_545  S
N2086      C2124   1.347       .  A
N2086      N3001   1.320       .  A
N2086     Co2087   2.097       .  S
Co2087     N2090   2.093       .  S
Co2087     N2107   2.087       .  S
Co2087     N2094   2.095       .  S
C2088      C2214   1.491       .  S
N2089      N3004   1.321       .  A
N2089      N2119   1.326       .  A
N2089     Co2122   2.081       .  S
N2090      N2126   1.326       .  A
N2091      C3028   1.350   1_545  A
N2091      N2101   1.322   1_545  A
H2092      C2117   1.081       .  S
N2093      N2994   1.320       .  A
N2093      N2114   1.321   1_565  A
N2094      N2099   1.326       .  A
C2095      C2123   1.459       .  S
C2095      C2262   1.483       .  S
N2096      C2111   1.343       .  A
N2096      N2997   1.321   1_545  A
N2096     Co2118   2.094       .  S
C2097      N2125   1.340       .  A
C2097      H2131   1.078       .  S
C2100      N2121   1.355       .  A
C2100      C2246   1.494       .  S
N2101      N3015   1.319       .  A
N2102      C2128   1.332       .  A
N2102      N3012   1.318   1_545  A
N2102     Co2118   2.061       .  S
N2103      C2117   1.340       .  A
N2104      N3010   1.318       .  A
N2104      N2132   1.321       .  A
N2104     Co2122   2.076       .  S
H2105      C2128   1.077       .  S
H2106      C2123   1.078       .  S
N2107      N3009   1.319       .  A
N2108     Co2122   2.079       .  S
N2109      N2121   1.326       .  A
N2109     Co2118   2.092       .  S
C2110      N3022   1.346       .  A
C2110      C2124   1.464       .  S
C2110      C2681   1.476       .  S
C2111      H2115   1.080       .  S
C2111      C3038   1.465   1_545  S
N2112      C2123   1.339       .  A
N2112     Co2122   2.078       .  S
N2114      C3018   1.346   1_545  A
C2116      N2132   1.349       .  A
C2116      C3036   1.458       .  S
C2116      C2294   1.470       .  S
Co2118    Cl3037   2.453   1_545  S
N2119      C2130   1.349       .  A
C2120      N2999   1.353       .  A
C2120      C2278   1.492       .  S
Co2122    Cl2129   2.443       .  S
C2128      C3024   1.453   1_545  S
Cl2129    Co3026   2.452       .  S
C2130      C3019   1.463       .  S
C2130      C2665   1.483       .  S
N2133      C2138   1.355       .  A
N2133      C2137   1.354       .  A
N2133      H2165   1.036       .  S
N2134      C2141   1.352       .  A
N2134      C2142   1.352       .  A
N2135      C2140   1.352       .  A
N2135      C2139   1.352       .  A
N2135      H2166   1.039       .  S
N2136      C2143   1.351       .  A
N2136      C2144   1.352       .  A
C2137      C2145   1.387       .  A
C2137      C2153   1.420       .  A
C2138      C2154   1.421       .  A
C2138      C2146   1.387       .  A
C2139      C2147   1.387       .  A
C2139      C2156   1.413       .  A
C2140      C2155   1.412       .  A
C2140      C2148   1.387       .  A
C2141      C2153   1.415       .  A
C2141      C2149   1.387       .  A
C2142      C2156   1.414       .  A
C2142      C2150   1.386       .  A
C2143      C2151   1.388       .  A
C2143      C2154   1.416       .  A
C2144      C2152   1.385       .  A
C2144      C2155   1.412       .  A
C2145      C2146   1.381       .  A
C2145      H2157   1.082       .  S
C2146      H2158   1.082       .  S
C2147      C2148   1.373       .  A
C2147      H2159   1.082       .  S
C2148      H2160   1.082       .  S
C2149      C2150   1.370       .  A
C2149      H2161   1.082       .  S
C2150      H2162   1.082       .  S
C2151      C2152   1.373       .  A
C2151      H2163   1.082       .  S
C2152      H2164   1.082       .  S
C2156      C2249   1.491       .  S
N2167      C2172   1.354       .  A
N2167      C2171   1.351       .  A
N2167      H2199   1.038       .  S
N2168      C2175   1.350       .  A
N2168      C2176   1.351       .  A
N2169      C2174   1.350       .  A
N2169      C2173   1.352       .  A
N2169      H2200   1.040       .  S
N2170      C2177   1.349       .  A
N2170      C2178   1.348       .  A
C2171      C2179   1.388       .  A
C2171      C2187   1.417       .  A
C2172      C2188   1.416       .  A
C2172      C2180   1.386       .  A
C2173      C2181   1.386       .  A
C2173      C2190   1.412       .  A
C2174      C2189   1.412       .  A
C2174      C2182   1.388       .  A
C2175      C2187   1.414       .  A
C2175      C2183   1.388       .  A
C2176      C2190   1.412       .  A
C2176      C2184   1.385       .  A
C2177      C2185   1.386       .  A
C2177      C2188   1.409       .  A
C2178      C2186   1.387       .  A
C2178      C2189   1.409       .  A
C2179      C2180   1.377       .  A
C2179      H2191   1.081       .  S
C2180      H2192   1.082       .  S
C2181      C2182   1.377       .  A
C2181      H2193   1.082       .  S
C2182      H2194   1.082       .  S
C2183      C2184   1.369       .  A
C2183      H2195   1.081       .  S
C2184      H2196   1.082       .  S
C2185      C2186   1.374       .  A
C2185      H2197   1.082       .  S
C2186      H2198   1.082       .  S
C2187      C2313   1.484       .  S
C2188      C2281   1.490       .  S
C2189      C2297   1.480       .  S
C2190      C2329   1.491       .  S
C2201      C2207   1.535   1_455  S
C2201      C2205   1.555   1_455  S
C2201      C2233   1.545       .  S
C2202      H2209   1.087       .  S
C2202      C2203   1.361       .  D
C2203      C2377   1.485       .  S
C2204      C2208   1.556       .  S
C2204      C2206   1.532       .  S
C2204      H2210   1.110       .  S
C2205      H2211   1.083       .  S
C2205      C2206   1.364       .  D
C2206      C2217   1.485       .  S
C2207      H2212   1.077       .  S
C2207      C2208   1.367       .  D
C2208      C2393   1.504       .  S
C2213      C2214   1.407       .  A
C2213      C2218   1.403       .  A
C2213      H2220   1.080       .  S
C2215      C2222   1.519       .  S
C2215      C2216   1.412       .  A
C2216      H2221   1.081       .  S
C2217      C2218   1.413       .  A
C2218      C2219   1.515       .  S
C2219      F2223   1.385       .  S
C2219      F2224   1.381       .  S
C2219      F2225   1.382       .  S
C2222      F2226   1.382       .  S
C2222      F2227   1.383       .  S
C2222      F2228   1.385       .  S
C2229      C2234   1.411       .  A
C2229      H2236   1.085       .  S
C2230      C2231   1.410       .  A
C2231      C2238   1.521       .  S
C2231      C2232   1.405       .  A
C2232      C2233   1.415       .  A
C2232      H2237   1.077       .  S
C2234      C2235   1.524       .  S
C2235      F2239   1.383       .  S
C2235      F2240   1.385       .  S
C2235      F2241   1.378       .  S
C2238      F2242   1.382       .  S
C2238      F2243   1.383       .  S
C2238      F2244   1.385       .  S
C2245      C2246   1.409       .  A
C2245      C2250   1.409       .  A
C2245      H2252   1.082       .  S
C2247      C2254   1.519       .  S
C2247      C2248   1.405       .  A
C2248      C2249   1.403       .  A
C2248      H2253   1.084       .  S
C2250      C2251   1.519       .  S
C2251      F2255   1.385       .  S
C2251      F2256   1.381       .  S
C2251      F2257   1.383       .  S
C2254      F2258   1.381       .  S
C2254      F2259   1.384       .  S
C2254      F2260   1.385       .  S
C2261      C2266   1.408       .  A
C2261      H2268   1.082       .  S
C2262      C2263   1.421       .  A
C2263      C2270   1.520       .  S
C2263      C2264   1.407       .  A
C2264      C2265   1.404       .  A
C2264      H2269   1.084       .  S
C2266      C2267   1.518       .  S
C2267      F2271   1.380       .  S
C2267      F2272   1.383       .  S
C2267      F2273   1.382       .  S
C2270      F2274   1.384       .  S
C2270      F2275   1.381       .  S
C2270      F2276   1.385       .  S
C2277      C3186   1.408   1_545  A
C2277      C2282   1.405       .  A
C2277      H2284   1.083       .  S
C2278      C3185   1.407       .  A
C2278      C2279   1.423       .  A
C2279      C2286   1.513       .  S
C2279      C2280   1.407       .  A
C2280      C2281   1.398       .  A
C2280      H2285   1.084       .  S
C2281      C3190   1.415       .  A
C2282      C2283   1.520       .  S
C2282      C3189   1.414   1_545  A
C2283      F2287   1.385       .  S
C2283      F2288   1.381       .  S
C2283      F3197   1.383       .  S
C2286      F3198   1.380       .  S
C2286      F2291   1.383       .  S
C2286      F2292   1.385       .  S
F2289      C3191   1.383       .  S
F2290      C3194   1.382       .  S
C2293      C2294   1.403       .  A
C2293      C2298   1.402       .  A
C2293      H3208   1.083       .  S
C2294      C2295   1.419       .  A
C2295      C2302   1.520       .  S
C2295      C2296   1.402       .  A
C2296      C2297   1.401       .  A
C2296      H2301   1.084       .  S
C2297      C2298   1.413       .  A
C2298      C3207   1.518       .  S
C2299      C3206   1.518       .  S
C2299      F3211   1.385       .  S
C2299      F3212   1.383       .  S
C2299      F2305   1.382       .  S
H2300      C3201   1.083       .  S
C2302      F2306   1.383       .  S
C2302      F3215   1.381       .  S
C2302      F2308   1.385       .  S
F2303      C3207   1.385       .  S
F2304      C3207   1.383       .  S
F2307      C3210   1.380       .  S
C2309      C3218   1.410   1_545  A
C2309      C2314   1.404       .  A
C2309      H2316   1.079       .  S
C2310      C3217   1.407       .  A
C2310      C2311   1.423       .  A
C2311      C2318   1.518       .  S
C2311      C2312   1.405       .  A
C2312      C2313   1.401       .  A
C2312      H2317   1.083       .  S
C2313      C3222   1.415       .  A
C2314      C2315   1.522       .  S
C2314      C3221   1.413   1_545  A
C2315      F2319   1.384       .  S
C2315      F3228   1.380       .  S
C2315      F2321   1.383       .  S
C2318      F2322   1.375       .  S
C2318      F3231   1.383       .  S
C2318      F2324   1.385       .  S
F2320      C3223   1.382       .  S
F2323      C3226   1.383       .  S
C2325      C2326   1.404       .  A
C2325      C2330   1.405       .  A
C2325      H2332   1.084       .  S
C2326      C2327   1.420       .  A
C2327      C2334   1.518       .  S
C2327      C2328   1.404       .  A
C2328      C2329   1.402       .  A
C2328      H2333   1.085       .  S
C2329      C2330   1.420       .  A
C2330      C2331   1.519       .  S
C2331      F2335   1.384       .  S
C2331      F2336   1.383       .  S
C2331      F3245   1.383       .  S
C2334      F2338   1.382       .  S
C2334      F3247   1.383       .  S
C2334      F3248   1.385       .  S
F2337      C3239   1.382       .  S
F2339      C3242   1.383       .  S
F2340      C3242   1.385       .  S
C2341      C2342   1.407       .  A
C2341      C2346   1.403       .  A
C2341      H2348   1.080       .  S
C2343      C2350   1.519       .  S
C2343      C2344   1.410       .  A
C2344      H2349   1.083       .  S
C2345      C2346   1.412       .  A
C2346      C2347   1.520       .  S
C2347      F2351   1.385       .  S
C2347      F2352   1.382       .  S
C2347      F2353   1.382       .  S
C2350      F2354   1.384       .  S
C2350      F2355   1.382       .  S
C2350      F2356   1.385       .  S
C2357      C2358   1.404       .  A
C2357      C2362   1.402       .  A
C2357      H2364   1.085       .  S
C2359      C2366   1.511       .  S
C2359      C2360   1.408       .  A
C2360      H2365   1.084       .  S
C2361      C2362   1.419       .  A
C2362      C2363   1.517       .  S
C2363      F2367   1.384       .  S
C2363      F2368   1.383       .  S
C2363      F2369   1.381       .  S
C2366      F2370   1.380       .  S
C2366      F2372   1.386       .  S
C2373      C2374   1.394       .  A
C2373      C2378   1.403       .  A
C2373      H2380   1.085       .  S
C2374      C2375   1.415       .  A
C2375      C2382   1.518       .  S
C2375      C2376   1.412       .  A
C2376      C2377   1.406       .  A
C2376      H2381   1.083       .  S
C2377      C2378   1.425       .  A
C2378      C2379   1.520       .  S
C2379      F2383   1.383       .  S
C2379      F2384   1.377       .  S
C2379      F2385   1.383       .  S
C2382      F2386   1.383       .  S
C2382      F2387   1.383       .  S
C2382      F2388   1.384       .  S
C2389      C2390   1.393       .  A
C2389      C2394   1.405       .  A
C2389      H2396   1.084       .  S
C2390      C2391   1.413       .  A
C2391      C2398   1.518       .  S
C2391      C2392   1.411       .  A
C2392      C2393   1.409       .  A
C2392      H2397   1.081       .  S
C2393      C2394   1.435       .  A
C2394      C2395   1.525       .  S
C2395      F2399   1.386       .  S
C2395      F2400   1.378       .  S
C2395      F2401   1.383       .  S
C2398      F2402   1.382       .  S
C2398      F2403   1.384       .  S
C2398      F2404   1.385       .  S
C2405      C2406   1.400       .  A
C2405      C2410   1.404       .  A
C2405      H2412   1.084       .  S
C2406      C2407   1.415       .  A
C2407      C2414   1.518       .  S
C2407      C2408   1.407       .  A
C2408      C2409   1.404       .  A
C2408      H2413   1.083       .  S
C2409      C2410   1.422       .  A
C2410      C2411   1.521       .  S
C2411      F2415   1.384       .  S
C2411      F2416   1.384       .  S
C2411      F2417   1.380       .  S
C2414      F2418   1.383       .  S
C2414      F2419   1.381       .  S
C2414      F2420   1.384       .  S
C2421      C2422   1.401       .  A
C2421      C2426   1.406       .  A
C2421      H2428   1.083       .  S
C2422      C2423   1.414       .  A
C2423      C2430   1.519       .  S
C2423      C2424   1.405       .  A
C2424      C2425   1.405       .  A
C2424      H2429   1.078       .  S
C2425      C2426   1.422       .  A
C2426      C2427   1.520       .  S
C2427      F2431   1.385       .  S
C2427      F2432   1.382       .  S
C2427      F2433   1.384       .  S
C2430      F2434   1.381       .  S
C2430      F2435   1.382       .  S
C2430      F2436   1.385       .  S
C2437      C2438   1.402       .  A
C2437      C2442   1.410       .  A
C2437      H2444   1.083       .  S
C2438      C2439   1.417       .  A
C2439      C2446   1.518       .  S
C2439      C2440   1.405       .  A
C2440      C2441   1.406       .  A
C2440      H2445   1.084       .  S
C2441      C2442   1.421       .  A
C2442      C2443   1.516       .  S
C2443      F2447   1.385       .  S
C2443      F2448   1.382       .  S
C2443      F2449   1.384       .  S
C2446      F2450   1.383       .  S
C2446      F2451   1.382       .  S
C2446      F2452   1.384       .  S
C2453      C2454   1.402       .  A
C2453      C2458   1.411       .  A
C2453      H2460   1.083       .  S
C2454      C2455   1.415       .  A
C2455      C2462   1.520       .  S
C2455      C2456   1.408       .  A
C2456      C2457   1.408       .  A
C2456      H2461   1.081       .  S
C2457      C2458   1.426       .  A
C2458      C2459   1.520       .  S
C2459      F2463   1.385       .  S
C2459      F2464   1.383       .  S
C2459      F2465   1.382       .  S
C2462      F2466   1.385       .  S
C2462      F2467   1.383       .  S
C2462      F2468   1.381       .  S
C2469      C2470   1.404   1_655  A
C2469      C2474   1.410       .  A
C2469      H2476   1.082       .  S
C2471      C2478   1.517       .  S
C2471      C2472   1.409       .  A
C2472      H2477   1.083       .  S
C2473      C2474   1.418       .  A
C2474      C2475   1.518       .  S
C2475      F2479   1.384       .  S
C2475      F2480   1.383       .  S
C2475      F2481   1.381       .  S
C2478      F2482   1.380       .  S
C2478      F2483   1.383       .  S
C2478      F2484   1.385       .  S
C2485      C2486   1.407       .  A
C2485      C2490   1.415       .  A
C2485      H2492   1.083       .  S
C2487      C2494   1.518       .  S
C2487      C2488   1.401       .  A
C2488      H2493   1.085       .  S
C2489      C2490   1.417       .  A
C2490      C2491   1.517       .  S
C2491      F2495   1.385       .  S
C2491      F2497   1.383       .  S
C2494      F2498   1.383       .  S
C2494      F2500   1.384       .  S
C2501      C2502   1.415       .  A
C2501      C2506   1.408       .  A
C2501      H2508   1.078       .  S
C2502      C2503   1.433       .  A
C2503      C2510   1.521       .  S
C2503      C2504   1.411       .  A
C2504      C2505   1.398       .  A
C2504      H2509   1.085       .  S
C2505      C2506   1.412       .  A
C2506      C2507   1.519       .  S
C2507      F2511   1.385       .  S
C2507      F2512   1.382       .  S
C2507      F2513   1.383       .  S
C2510      F2514   1.379       .  S
C2510      F2515   1.382       .  S
C2510      F2516   1.385       .  S
C2517      C2518   1.404       .  A
C2517      C2522   1.408       .  A
C2517      H2524   1.083       .  S
C2518      C2519   1.425       .  A
C2519      C2526   1.520       .  S
C2519      C2520   1.405       .  A
C2520      C2521   1.401       .  A
C2520      H2525   1.084       .  S
C2521      C2522   1.416       .  A
C2522      C2523   1.517       .  S
C2523      F2527   1.385       .  S
C2523      F2528   1.381       .  S
C2523      F2529   1.384       .  S
C2526      F2530   1.382       .  S
C2526      F2531   1.382       .  S
C2526      F2532   1.385       .  S
C2533      C3442   1.403   1_545  A
C2533      C2538   1.402       .  A
C2533      H2540   1.080       .  S
C2534      C3441   1.403       .  A
C2534      C2535   1.416       .  A
C2535      C2542   1.513       .  S
C2535      C2536   1.409       .  A
C2536      C2537   1.405       .  A
C2536      H2541   1.082       .  S
C2537      C3446   1.424       .  A
C2538      C2539   1.521       .  S
C2538      C3445   1.419   1_545  A
C2539      F3451   1.385       .  S
C2539      F3452   1.384       .  S
C2539      F2545   1.383       .  S
C2542      F2546   1.381       .  S
C2542      F3455   1.379       .  S
C2542      F3456   1.384       .  S
F2543      C3447   1.385       .  S
F2544      C3447   1.384       .  S
F2547      C3450   1.379       .  S
F2548      C3450   1.385       .  S
C2549      C2550   1.419       .  A
C2549      C2554   1.411       .  A
C2549      H2556   1.075       .  S
C2550      C2551   1.437       .  A
C2551      C3466   1.528       .  S
C2551      C2552   1.405       .  A
C2552      C2553   1.397       .  A
C2552      H2557   1.085       .  S
C2553      C2554   1.410       .  A
C2554      C2555   1.520       .  S
C2555      F2559   1.384       .  S
C2555      F2560   1.382       .  S
C2555      F3469   1.384       .  S
C2558      C3459   1.529       .  S
C2558      F3470   1.384       .  S
C2558      F2563   1.373       .  S
C2558      F2564   1.384       .  S
F2561      C3463   1.383       .  S
F2562      C3466   1.385       .  S
C2565      C2566   1.401       .  A
C2565      C2570   1.401       .  A
C2565      H2572   1.081       .  S
C2566      C2567   1.417       .  A
C2567      C2574   1.514       .  S
C2567      C2568   1.408       .  A
C2568      C2569   1.402       .  A
C2568      H2573   1.083       .  S
C2569      C2570   1.419       .  A
C2570      C2571   1.520       .  S
C2571      F2575   1.385       .  S
C2571      F2576   1.382       .  S
C2571      F2577   1.384       .  S
C2574      F2578   1.381       .  S
C2574      F2579   1.380       .  S
C2574      F2580   1.385       .  S
C2581      C2582   1.407       .  A
C2581      C2586   1.403       .  A
C2581      H2588   1.081       .  S
C2582      C2583   1.422       .  A
C2583      C2590   1.516       .  S
C2583      C2584   1.412       .  A
C2584      C2585   1.401       .  A
C2584      H2589   1.083       .  S
C2585      C2586   1.407       .  A
C2586      C2587   1.516       .  S
C2587      F2591   1.384       .  S
C2587      F2592   1.383       .  S
C2587      F2593   1.384       .  S
C2590      F2594   1.380       .  S
C2590      F2595   1.380       .  S
C2590      F2596   1.385       .  S
C2597      C2598   1.396       .  A
C2597      C2602   1.405       .  A
C2597      H2604   1.083       .  S
C2598      C2599   1.410       .  A
C2599      C2606   1.521       .  S
C2599      C2600   1.406       .  A
C2600      C2601   1.413       .  A
C2600      H2605   1.079       .  S
C2601      C2602   1.427       .  A
C2602      C2603   1.517       .  S
C2603      F2607   1.385       .  S
C2603      F2608   1.380       .  S
C2603      F2609   1.383       .  S
C2606      F2610   1.383       .  S
C2606      F2611   1.382       .  S
C2606      F2612   1.384       .  S
C2613      C2614   1.396       .  A
C2613      C2618   1.403       .  A
C2613      H2620   1.083       .  S
C2614      C2615   1.408       .  A
C2615      C2622   1.521       .  S
C2615      C2616   1.397       .  A
C2616      C2617   1.408       .  A
C2616      H2621   1.079       .  S
C2617      C2618   1.425       .  A
C2618      C2619   1.519       .  S
C2619      F2623   1.385       .  S
C2619      F2624   1.382       .  S
C2619      F2625   1.383       .  S
C2622      F2626   1.382       .  S
C2622      F2627   1.385       .  S
C2622      F2628   1.382       .  S
C2629      C2630   1.399       .  A
C2629      C2634   1.408       .  A
C2629      H2636   1.083       .  S
C2630      C2631   1.409       .  A
C2631      C2638   1.521       .  S
C2631      C2632   1.401       .  A
C2632      C2633   1.409       .  A
C2632      H2637   1.078       .  S
C2633      C2634   1.426       .  A
C2634      C2635   1.519       .  S
C2635      F2639   1.385       .  S
C2635      F2640   1.384       .  S
C2635      F2641   1.382       .  S
C2638      F2642   1.383       .  S
C2638      F2643   1.382       .  S
C2638      F2644   1.384       .  S
C2645      C2646   1.408       .  A
C2645      C2650   1.400       .  A
C2645      H2652   1.080       .  S
C2646      C2647   1.427       .  A
C2647      C2654   1.518       .  S
C2647      C2648   1.404       .  A
C2648      C2649   1.395       .  A
C2648      H2653   1.083       .  S
C2649      C2650   1.409       .  A
C2650      C2651   1.522       .  S
C2651      F2655   1.384       .  S
C2651      F2656   1.382       .  S
C2651      F2657   1.383       .  S
C2654      F2658   1.382       .  S
C2654      F2659   1.382       .  S
C2654      F2660   1.386       .  S
C2661      C2662   1.401       .  A
C2661      C2666   1.408       .  A
C2661      H2668   1.084       .  S
C2662      C3571   1.418       .  A
C2663      C2670   1.514       .  S
C2663      C3570   1.415       .  A
C2663      C2664   1.407       .  A
C2664      C3573   1.402       .  A
C2664      H2669   1.083       .  S
C2665      C3572   1.402       .  A
C2665      C2666   1.419       .  A
C2666      C2667   1.518       .  S
C2667      F2671   1.385       .  S
C2667      F3580   1.380       .  S
C2667      F2673   1.384       .  S
C2670      F2674   1.379       .  S
C2670      F3583   1.382       .  S
C2670      F2676   1.385       .  S
F2672      C3575   1.381       .  S
F2675      C3578   1.382       .  S
C2677      C3586   1.407   1_565  A
C2677      C2682   1.408       .  A
C2677      H2684   1.081       .  S
C2678      C3585   1.405       .  A
C2678      C2679   1.429       .  A
C2679      C2686   1.525       .  S
C2679      C2680   1.404       .  A
C2680      C2681   1.397       .  A
C2680      H2685   1.085       .  S
C2681      C3590   1.415       .  A
C2682      C2683   1.517       .  S
C2682      C3589   1.414       .  A
C2683      F2687   1.385       .  S
C2683      F3596   1.382       .  S
C2683      F2689   1.383       .  S
C2686      F2690   1.385       .  S
C2686      F3599   1.382       .  S
C2686      F2692   1.382       .  S
F2688      C3591   1.382       .  S
F2691      C3594   1.380       .  S
C2693      C2694   1.419       .  A
C2693      C2698   1.405       .  A
C2693      H2700   1.067       .  S
C2694      C2695   1.438       .  A
C2695      C2702   1.528       .  S
C2695      C2696   1.405       .  A
C2696      C2697   1.396       .  A
C2696      H2701   1.085       .  S
C2697      C2698   1.409       .  A
C2698      C2699   1.523       .  S
C2699      F2703   1.385       .  S
C2699      F2704   1.382       .  S
C2699      F2705   1.383       .  S
C2702      F2706   1.372       .  S
C2702      F2707   1.384       .  S
C2702      F2708   1.384       .  S
C2709      C2710   1.406       .  A
C2709      C2714   1.406       .  A
C2709      H2716   1.082       .  S
C2710      C2711   1.428       .  A
C2711      C2718   1.518       .  S
C2711      C2712   1.407       .  A
C2712      C2713   1.397       .  A
C2712      H2717   1.084       .  S
C2713      C2714   1.419       .  A
C2714      C2715   1.521       .  S
C2715      F2719   1.385       .  S
C2715      F2720   1.384       .  S
C2715      F2721   1.383       .  S
C2718      F2722   1.374       .  S
C2718      F2723   1.381       .  S
C2718      F2724   1.385       .  S
C2725      C2726   1.534       .  S
C2725      C2731   1.550       .  S
C2725      C2729   1.547       .  S
C2725      C3602   1.559       .  S
C2726      H2733   1.087       .  S
C2727      C2728   1.544   1_545  S
C2727      C3570   1.482   1_545  S
C2728      C2732   1.543   1_565  S
C2728      C2730   1.533       .  S
C2728      H2734   1.105       .  S
C2730      C3618   1.491       .  S
C2731      H2736   1.074       .  S
C2732      C3586   1.493       .  S
N2737      C2742   1.351       .  A
N2737      C2741   1.350   1_554  A
N2737      H2769   1.038       .  S
N2738      C2746   1.349       .  A
N2739      C2744   1.349       .  A
N2739      C2743   1.349   1_554  A
N2739      H2770   1.038       .  S
N2740      C2748   1.351       .  A
C2741      C2749   1.387       .  A
C2741      C2757   1.410       .  A
C2742      C2758   1.410       .  A
C2742      C2750   1.387       .  A
C2743      C2751   1.387       .  A
C2743      C2760   1.409       .  A
C2744      C2759   1.409       .  A
C2744      C2752   1.387       .  A
C2745      C2757   1.407       .  A
C2745      C2753   1.386       .  A
C2746      C2760   1.411       .  A
C2746      C2754   1.387       .  A
C2747      C2755   1.386       .  A
C2747      C2758   1.409       .  A
C2748      C2756   1.385       .  A
C2748      C2759   1.409       .  A
C2749      C2750   1.375   1_556  A
C2749      H2761   1.082       .  S
C2750      H2762   1.082       .  S
C2751      C2752   1.376   1_556  A
C2751      H2763   1.082       .  S
C2752      H2764   1.082       .  S
C2753      H2765   1.082       .  S
C2754      H2766   1.082       .  S
C2755      H2767   1.082       .  S
C2756      H2768   1.082       .  S
C2757      C3557   1.479       .  S
C2758      C3522   1.480       .  S
C2759      C3506   1.482       .  S
C2760      C3538   1.477       .  S
C2771      C2777   1.546       .  S
C2771      C2775   1.535       .  S
C2771      C3458   1.540   1_565  S
C2772      H2779   1.087       .  S
C2772      C2773   1.366       .  D
C2773      C3474   1.497       .  S
C2774      C2778   1.545       .  S
C2774      C2776   1.546       .  S
C2774      H2780   1.107       .  S
C2775      H2781   1.087       .  S
C2775      C2776   1.367       .  D
C2776      C3442   1.489       .  S
C2777      H2782   1.080       .  S
C2777      C2778   1.361       .  D
C2778      C3490   1.488       .  S
C2783      C2784   1.536       .  S
C2783      C2789   1.543       .  S
C2783      C2787   1.553       .  S
C2783      C3410   1.560       .  S
C2784      H2791   1.085       .  S
C2785      C2786   1.543   1_455  S
C2785      C3394   1.490   1_455  S
C2786      C2790   1.543   1_655  S
C2786      C2788   1.541       .  S
C2786      H2792   1.111       .  S
C2788      C3426   1.491       .  S
C2789      H2794   1.086       .  S
C2790      C3378   1.490       .  S
N2795      C2800   1.354   1_554  A
N2795      C2799   1.355       .  A
N2795      H2827   1.040       .  S
N2796      C2804   1.353       .  A
N2797      C2802   1.352   1_554  A
N2797      C2801   1.354       .  A
N2797      H2828   1.039       .  S
N2798      C2806   1.351       .  A
C2799      C2807   1.386       .  A
C2799      C2815   1.416       .  A
C2800      C2816   1.416       .  A
C2800      C2808   1.387       .  A
C2801      C2809   1.387       .  A
C2801      C2818   1.415       .  A
C2802      C2817   1.414       .  A
C2802      C2810   1.387       .  A
C2803      C2815   1.412       .  A
C2803      C2811   1.386       .  A
C2804      C2818   1.414       .  A
C2804      C2812   1.385       .  A
C2805      C2813   1.386       .  A
C2805      C2816   1.413       .  A
C2806      C2814   1.387       .  A
C2806      C2817   1.414       .  A
C2807      C2808   1.376   1_554  A
C2807      H2819   1.082       .  S
C2808      H2820   1.082       .  S
C2809      C2810   1.378   1_554  A
C2809      H2821   1.082       .  S
C2810      H2822   1.082       .  S
C2811      H2823   1.082       .  S
C2812      H2824   1.082       .  S
C2813      H2825   1.082       .  S
C2814      H2826   1.082       .  S
C2815      C3330   1.492       .  S
C2816      C3362   1.492       .  S
C2817      C3346   1.487       .  S
C2818      C3314   1.496       .  S
C2829      N2847   1.351       .  A
C2829      C2866   1.460       .  S
C2829      C3554   1.485       .  S
N2830      N2847   1.326       .  A
N2830      N2852   1.317       .  A
N2830     Co2867   2.085       .  S
C2831      N2856   1.340       .  A
C2831      H2876   1.082       .  S
C2831      C2869   1.457       .  S
H2832      C2873   1.077       .  S
C2833      N2857   1.341       .  A
C2833      H2862   1.080       .  S
C2833      C2837   1.467       .  S
Co2834     N2852   2.071       .  S
Co2834     N2842   2.093       .  S
Co2834     N2874   2.087       .  S
Co2834     N2850   2.087       .  S
Co2834    Cl2878   2.450       .  S
N2835      C2873   1.336       .  A
N2835      N2842   1.317       .  A
N2835     Co2836   2.082       .  S
Co2836     N2839   2.071       .  S
Co2836     N2856   2.078       .  S
Co2836     N2843   2.096       .  S
Co2836    Cl2878   2.450       .  S
C2837      N2875   1.346       .  A
C2837      C3541   1.489       .  S
N2838      N2845   1.319       .  A
N2838      N2868   1.325       .  A
N2838     Co2871   2.094       .  S
N2839      N2857   1.316       .  A
N2839      N2875   1.321       .  A
N2840      C2869   1.349       .  A
N2840      N2850   1.325       .  A
H2841      C2866   1.080       .  S
N2842      N2863   1.328       .  A
N2843      N2861   1.321       .  A
N2843      N2848   1.327       .  A
C2844      N2848   1.353       .  A
C2844      C2872   1.462       .  S
C2844      C3413   1.483       .  S
N2845      C2860   1.338       .  A
N2845     Co2867   2.081       .  S
C2846      N2874   1.339       .  A
C2846      H2880   1.076       .  S
C2846      C2849   1.466       .  S
C2849      N2870   1.357       .  A
C2849      C3429   1.494       .  S
N2850      N2856   1.320       .  A
N2851      C2877   1.344       .  A
N2851      N2853   1.320       .  A
N2851     Co2867   2.091       .  S
N2852      C2866   1.335       .  A
N2853      N2881   1.322       .  A
N2853     Co2871   2.079       .  S
H2854      C2877   1.082       .  S
H2855      C2872   1.082       .  S
N2857     Co2871   2.082       .  S
N2858      N2870   1.326       .  A
N2858      N2874   1.319       .  A
N2858     Co2867   2.099       .  S
C2859      N2863   1.354       .  A
C2859      C2873   1.462       .  S
C2859      C3365   1.498       .  S
C2860      H2864   1.079       .  S
C2860      C2879   1.461       .  S
N2861      C2872   1.342       .  A
N2861     Co2871   2.094       .  S
C2865      N2881   1.347       .  A
C2865      C2877   1.466       .  S
C2865      C3477   1.488       .  S
Co2867    Cl2878   2.455       .  S
N2868      C2879   1.354       .  A
C2869      C3493   1.472       .  S
Co2871    Cl2878   2.449       .  S
C2879      C3349   1.492       .  S
C2882      N2900   1.349       .  A
C2882      C2919   1.463       .  S
C2882      C3298   1.483       .  S
N2883      N2900   1.325       .  A
N2883      N2905   1.320       .  A
N2883     Co2920   2.087       .  S
C2884      N2909   1.340       .  A
C2884      H2929   1.079       .  S
C2884      C2922   1.467       .  S
H2885      C2926   1.082       .  S
C2886      N2910   1.341       .  A
C2886      H2915   1.081       .  S
C2886      C2890   1.458       .  S
Co2887     N2905   2.096       .  S
Co2887     N2895   2.072       .  S
Co2887     N2927   2.066       .  S
Co2887     N2903   2.097       .  S
Co2887    Cl2931   2.452       .  S
N2888      C2926   1.341       .  A
N2888      N2895   1.320       .  A
N2888     Co2889   2.091       .  S
Co2889     N2892   2.090       .  S
Co2889     N2909   2.084       .  S
Co2889     N2896   2.086       .  S
Co2889    Cl2931   2.453       .  S
C2890      N2928   1.351       .  A
C2890      C3282   1.479       .  S
N2891      N2898   1.320       .  A
N2891      N2921   1.324       .  A
N2891     Co2924   2.081       .  S
N2892      N2910   1.320       .  A
N2892      N2928   1.327       .  A
N2893      C2922   1.354       .  A
N2893      N2903   1.327       .  A
H2894      C2919   1.081       .  S
N2895      N2916   1.320       .  A
N2896      N2914   1.320       .  A
N2896      N2901   1.323       .  A
C2897      N2901   1.349       .  A
C2897      C2925   1.466       .  S
C2897      C3509   1.491       .  S
N2898      C2913   1.343       .  A
N2898     Co2920   2.103       .  S
C2899      N2927   1.333       .  A
C2899      H2933   1.078       .  S
C2899      C2902   1.462       .  S
C2902      N2923   1.354       .  A
C2902      C3525   1.492       .  S
N2903      N2909   1.317       .  A
N2904      C2930   1.336       .  A
N2904      N2906   1.317       .  A
N2904     Co2920   2.076       .  S
N2905      C2919   1.346       .  A
N2906      N2934   1.330       .  A
N2906     Co2924   2.102       .  S
H2907      C2930   1.075       .  S
H2908      C2925   1.081       .  S
N2910     Co2924   2.089       .  S
N2911      N2923   1.325       .  A
N2911      N2927   1.317       .  A
N2911     Co2920   2.095       .  S
C2912      N2916   1.346       .  A
C2912      C2926   1.468       .  S
C2912      C3621   1.486       .  S
C2913      H2917   1.082       .  S
C2913      C2932   1.470       .  S
N2914      C2925   1.338       .  A
N2914     Co2924   2.082       .  S
C2918      N2934   1.358       .  A
C2918      C2930   1.460       .  S
C2918      C3317   1.498       .  S
Co2920    Cl2931   2.446       .  S
N2921      C2932   1.349       .  A
C2922      C3333   1.505       .  S
Co2924    Cl2931   2.458       .  S
C2932      C3605   1.485       .  S
C2935      N2953   1.353       .  A
C2935      C3461   1.475       .  S
N2936      N2953   1.325       .  A
N2936     Co2973   2.096       .  S
C2937      N2962   1.337       .  A
C2937      H2982   1.081       .  S
C2937      C2975   1.460       .  S
H2938      C2979   1.079       .  S
C2939      N2963   1.339       .  A
C2939      H2968   1.082       .  S
C2939      C2943   1.461       .  S
Co2940     N2958   2.079       .  S
Co2940     N2948   2.081       .  S
Co2940     N2980   2.075       .  S
Co2940     N2956   2.088       .  S
N2941      C2979   1.343       .  A
N2941     Co2942   2.085       .  S
Co2942     N2945   2.088       .  S
Co2942     N2962   2.074       .  S
Co2942     N2949   2.079       .  S
C2943      C3445   1.481       .  S
N2944      N2974   1.327       .  A
N2944     Co2977   2.086       .  S
N2945      N2981   1.323       .  A
N2946      N2956   1.324       .  A
H2947      C2972   1.082       .  S
N2948      N2969   1.323       .  A
N2949      N2954   1.326       .  A
C2950      C2978   1.458   1_545  S
C2950      C3234   1.478       .  S
N2951      C2966   1.344       .  A
N2951     Co2973   2.096       .  S
C2952      N2980   1.337       .  A
C2952      H2986   1.081       .  S
C2955      N2976   1.352       .  A
C2955      C3218   1.493       .  S
N2957      C2983   1.346       .  A
N2957     Co2973   2.104       .  S
N2958      C2972   1.337       .  A
N2959      N2987   1.325       .  A
N2959     Co2977   2.084       .  S
H2960      C2983   1.078       .  S
H2961      C2978   1.079       .  S
N2963     Co2977   2.079       .  S
N2964      N2976   1.325       .  A
N2964     Co2973   2.088       .  S
C2965      C2979   1.466       .  S
C2965      C3381   1.488       .  S
C2966      H2970   1.081       .  S
N2967      C2978   1.337       .  A
N2967     Co2977   2.073       .  S
C2971      N2987   1.349       .  A
C2971      C3266   1.491       .  S
N2974      C2985   1.350       .  A
C2975      C3250   1.490       .  S
Co2977    Cl2984   2.455       .  S
C2985      C3397   1.477       .  S
C2988      N3006   1.347   1_455  A
C2988      C3138   1.472       .  S
N2989      N3006   1.321       .  A
N2989     Co3026   2.079       .  S
C2990      N3015   1.338       .  A
C2990      H3035   1.077       .  S
C2990      C3028   1.467       .  S
H2991      C3032   1.081       .  S
C2992      N3016   1.334       .  A
C2992      H3021   1.082       .  S
C2992      C2996   1.460       .  S
Co2993     N3011   2.084       .  S
Co2993     N3001   2.077       .  S
Co2993     N3033   2.070       .  S
Co2993     N3009   2.089       .  S
N2994      C3032   1.343       .  A
N2994     Co2995   2.084       .  S
Co2995     N2998   2.097       .  S
Co2995     N3015   2.087       .  S
Co2995     N3002   2.094       .  S
C2996      C3122   1.484       .  S
N2997      N3027   1.323       .  A
N2997     Co3030   2.075       .  S
N2998      N3034   1.328       .  A
N2999      N3009   1.324       .  A
H3000      C3025   1.082       .  S
N3001      N3022   1.322       .  A
N3002      N3007   1.328       .  A
C3003      C3031   1.466       .  S
C3003      C3170   1.485       .  S
N3004      C3019   1.342       .  A
N3004     Co3026   2.098       .  S
C3005      N3033   1.336       .  A
C3005      H3039   1.077       .  S
C3008      N3029   1.357       .  A
C3008      C3154   1.488       .  S
N3010      C3036   1.338       .  A
N3010     Co3026   2.070       .  S
N3011      C3025   1.340       .  A
N3012      N3040   1.321       .  A
N3012     Co3030   2.070       .  S
H3013      C3036   1.079       .  S
H3014      C3031   1.078       .  S
N3016     Co3030   2.073       .  S
N3017      N3029   1.328       .  A
N3017     Co3026   2.097       .  S
C3018      C3032   1.460       .  S
C3018      C3589   1.470       .  S
C3019      H3023   1.081       .  S
N3020      C3031   1.341       .  A
N3020     Co3030   2.084       .  S
C3024      N3040   1.350       .  A
C3024      C3202   1.465       .  S
N3027      C3038   1.346       .  A
C3028      C3186   1.486       .  S
Co3030    Cl3037   2.436       .  S
C3038      C3573   1.479       .  S
N3041      C3046   1.355       .  A
N3041      C3045   1.354       .  A
N3041      H3073   1.039       .  S
N3042      C3049   1.351       .  A
N3042      C3050   1.353       .  A
N3043      C3048   1.352       .  A
N3043      C3047   1.354       .  A
N3043      H3074   1.038       .  S
N3044      C3051   1.352       .  A
N3044      C3052   1.350       .  A
C3045      C3053   1.386       .  A
C3045      C3061   1.417       .  A
C3046      C3062   1.421       .  A
C3046      C3054   1.387       .  A
C3047      C3055   1.387       .  A
C3047      C3064   1.417       .  A
C3048      C3063   1.416       .  A
C3048      C3056   1.387       .  A
C3049      C3061   1.415       .  A
C3049      C3057   1.387       .  A
C3050      C3064   1.414       .  A
C3050      C3058   1.386       .  A
C3051      C3059   1.386       .  A
C3051      C3062   1.416       .  A
C3052      C3060   1.387       .  A
C3052      C3063   1.413       .  A
C3053      C3054   1.380       .  A
C3053      H3065   1.082       .  S
C3054      H3066   1.082       .  S
C3055      C3056   1.379       .  A
C3055      H3067   1.082       .  S
C3056      H3068   1.082       .  S
C3057      C3058   1.372       .  A
C3057      H3069   1.082       .  S
C3058      H3070   1.082       .  S
C3059      C3060   1.373       .  A
C3059      H3071   1.082       .  S
C3060      H3072   1.082       .  S
C3064      C3157   1.496       .  S
N3075      C3080   1.354       .  A
N3075      C3079   1.352       .  A
N3075      H3107   1.036       .  S
N3076      C3083   1.350   1_545  A
N3076      C3084   1.350   1_545  A
N3077      C3082   1.348       .  A
N3077      C3081   1.349   1_565  A
N3077      H3108   1.040       .  S
N3078      C3085   1.347       .  A
N3078      C3086   1.347       .  A
C3079      C3087   1.387   1_565  A
C3079      C3095   1.416       .  A
C3080      C3096   1.417       .  A
C3080      C3088   1.388   1_565  A
C3081      C3089   1.386       .  A
C3081      C3098   1.406       .  A
C3082      C3097   1.407       .  A
C3082      C3090   1.388   1_565  A
C3083      C3095   1.415       .  A
C3083      C3091   1.388       .  A
C3084      C3098   1.409   1_565  A
C3084      C3092   1.384       .  A
C3085      C3093   1.387       .  A
C3085      C3096   1.409       .  A
C3086      C3094   1.387       .  A
C3086      C3097   1.408       .  A
C3087      C3088   1.376       .  A
C3087      H3099   1.082       .  S
C3088      H3100   1.082       .  S
C3089      C3090   1.376       .  A
C3089      H3101   1.082       .  S
C3090      H3102   1.082       .  S
C3091      C3092   1.369       .  A
C3091      H3103   1.081       .  S
C3092      H3104   1.082       .  S
C3093      C3094   1.372       .  A
C3093      H3105   1.082       .  S
C3094      H3106   1.083       .  S
C3095      C3221   1.485       .  S
C3096      C3189   1.485       .  S
C3097      C3205   1.474       .  S
C3098      C3237   1.481       .  S
C3109      C3115   1.534   1_455  S
C3109      C3113   1.552   1_455  S
C3109      C3141   1.543       .  S
C3110      H3117   1.087       .  S
C3110      C3111   1.359       .  D
C3111      C3285   1.486       .  S
C3112      C3116   1.552       .  S
C3112      C3114   1.531       .  S
C3112      H3118   1.110       .  S
C3113      H3119   1.085       .  S
C3113      C3114   1.363       .  D
C3114      C3125   1.481       .  S
C3115      H3120   1.086       .  S
C3115      C3116   1.364       .  D
C3116      C3301   1.502       .  S
C3121      C3122   1.406       .  A
C3121      C3126   1.401       .  A
C3121      H3128   1.081       .  S
C3123      C3130   1.517       .  S
C3123      C3124   1.410       .  A
C3124      H3129   1.082       .  S
C3125      C3126   1.415       .  A
C3126      C3127   1.517       .  S
C3127      F3131   1.385       .  S
C3127      F3132   1.382       .  S
C3127      F3133   1.381       .  S
C3130      F3134   1.382       .  S
C3130      F3135   1.383       .  S
C3130      F3136   1.386       .  S
C3137      C3142   1.407       .  A
C3137      H3144   1.085       .  S
C3138      C3139   1.411   1_455  A
C3139      C3146   1.523       .  S
C3139      C3140   1.403       .  A
C3140      C3141   1.416   1_655  A
C3140      H3145   1.077       .  S
C3142      C3143   1.525       .  S
C3143      F3147   1.382       .  S
C3143      F3148   1.386       .  S
C3143      F3149   1.376       .  S
C3146      F3150   1.384       .  S
C3146      F3151   1.382       .  S
C3146      F3152   1.385       .  S
C3153      C3154   1.403       .  A
C3153      C3158   1.405       .  A
C3153      H3160   1.085       .  S
C3155      C3162   1.520       .  S
C3155      C3156   1.408       .  A
C3156      C3157   1.400       .  A
C3156      H3161   1.084       .  S
C3158      C3159   1.519       .  S
C3159      F3163   1.383       .  S
C3159      F3164   1.383       .  S
C3159      F3165   1.381       .  S
C3162      F3166   1.382       .  S
C3162      F3167   1.383       .  S
C3162      F3168   1.385       .  S
C3169      C3174   1.411       .  A
C3169      H3176   1.082       .  S
C3170      C3171   1.424       .  A
C3171      C3178   1.518       .  S
C3171      C3172   1.404       .  A
C3172      C3173   1.397       .  A
C3172      H3177   1.084       .  S
C3174      C3175   1.518       .  S
C3175      F3179   1.379       .  S
C3175      F3180   1.383       .  S
C3175      F3181   1.383       .  S
C3178      F3182   1.383       .  S
C3178      F3183   1.382       .  S
C3178      F3184   1.386       .  S
C3185      C3190   1.406       .  A
C3185      H3192   1.082       .  S
C3186      C3187   1.421       .  A
C3187      C3194   1.513       .  S
C3187      C3188   1.404       .  A
C3188      C3189   1.397       .  A
C3188      H3193   1.084       .  S
C3190      C3191   1.519       .  S
C3191      F3195   1.385       .  S
C3191      F3196   1.381       .  S
C3194      F3199   1.383       .  S
C3194      F3200   1.385       .  S
C3201      C3202   1.404       .  A
C3201      C3206   1.401       .  A
C3202      C3203   1.418   1_565  A
C3203      C3210   1.521       .  S
C3203      C3204   1.397       .  A
C3204      C3205   1.399   1_545  A
C3204      H3209   1.084       .  S
C3205      C3206   1.412       .  A
C3207      F3213   1.381       .  S
C3210      F3214   1.383       .  S
C3210      F3216   1.385       .  S
C3217      C3222   1.401       .  A
C3217      H3224   1.081       .  S
C3218      C3219   1.424       .  A
C3219      C3226   1.520       .  S
C3219      C3220   1.406       .  A
C3220      C3221   1.400       .  A
C3220      H3225   1.083       .  S
C3222      C3223   1.520       .  S
C3223      F3227   1.384       .  S
C3223      F3229   1.381       .  S
C3226      F3230   1.374       .  S
C3226      F3232   1.385       .  S
C3233      C3234   1.405       .  A
C3233      C3238   1.402       .  A
C3233      H3240   1.085       .  S
C3234      C3235   1.421   1_545  A
C3235      C3242   1.519       .  S
C3235      C3236   1.401       .  A
C3236      C3237   1.400   1_565  A
C3236      H3241   1.085       .  S
C3237      C3238   1.416       .  A
C3238      C3239   1.519       .  S
C3239      F3243   1.383       .  S
C3239      F3244   1.383       .  S
C3242      F3246   1.383       .  S
C3249      C3250   1.410       .  A
C3249      C3254   1.404       .  A
C3249      H3256   1.081       .  S
C3251      C3258   1.519       .  S
C3251      C3252   1.409       .  A
C3252      H3257   1.083       .  S
C3253      C3254   1.411       .  A
C3254      C3255   1.522       .  S
C3255      F3259   1.384       .  S
C3255      F3260   1.383       .  S
C3255      F3261   1.382       .  S
C3258      F3262   1.383       .  S
C3258      F3263   1.383       .  S
C3258      F3264   1.384       .  S
C3265      C3266   1.407       .  A
C3265      C3270   1.409       .  A
C3265      H3272   1.084       .  S
C3267      C3274   1.513       .  S
C3267      C3268   1.409       .  A
C3268      H3273   1.084       .  S
C3269      C3270   1.420       .  A
C3270      C3271   1.519       .  S
C3271      F3275   1.384       .  S
C3271      F3276   1.382       .  S
C3271      F3277   1.383       .  S
C3274      F3278   1.374       .  S
C3274      F3280   1.385       .  S
C3281      C3282   1.397       .  A
C3281      C3286   1.405       .  A
C3281      H3288   1.085       .  S
C3282      C3283   1.417       .  A
C3283      C3290   1.517       .  S
C3283      C3284   1.412       .  A
C3284      C3285   1.403       .  A
C3284      H3289   1.083       .  S
C3285      C3286   1.424       .  A
C3286      C3287   1.521       .  S
C3287      F3291   1.383       .  S
C3287      F3292   1.379       .  S
C3287      F3293   1.383       .  S
C3290      F3294   1.383       .  S
C3290      F3295   1.383       .  S
C3290      F3296   1.385       .  S
C3297      C3298   1.396       .  A
C3297      C3302   1.408       .  A
C3297      H3304   1.085       .  S
C3298      C3299   1.415       .  A
C3299      C3306   1.516       .  S
C3299      C3300   1.411       .  A
C3300      C3301   1.406       .  A
C3300      H3305   1.081       .  S
C3301      C3302   1.435       .  A
C3302      C3303   1.525       .  S
C3303      F3307   1.385       .  S
C3303      F3308   1.376       .  S
C3303      F3309   1.383       .  S
C3306      F3310   1.381       .  S
C3306      F3311   1.383       .  S
C3306      F3312   1.385       .  S
C3313      C3314   1.398       .  A
C3313      C3318   1.407       .  A
C3313      H3320   1.084       .  S
C3314      C3315   1.414       .  A
C3315      C3322   1.517       .  S
C3315      C3316   1.413       .  A
C3316      C3317   1.409       .  A
C3316      H3321   1.083       .  S
C3317      C3318   1.428       .  A
C3318      C3319   1.520       .  S
C3319      F3323   1.385       .  S
C3319      F3324   1.383       .  S
C3319      F3325   1.381       .  S
C3322      F3326   1.383       .  S
C3322      F3327   1.382       .  S
C3322      F3328   1.383       .  S
C3329      C3330   1.397       .  A
C3329      C3334   1.408       .  A
C3329      H3336   1.083       .  S
C3330      C3331   1.411       .  A
C3331      C3338   1.518       .  S
C3331      C3332   1.409       .  A
C3332      C3333   1.413       .  A
C3332      H3337   1.079       .  S
C3333      C3334   1.428       .  A
C3334      C3335   1.517       .  S
C3335      F3339   1.385       .  S
C3335      F3340   1.381       .  S
C3335      F3341   1.383       .  S
C3338      F3342   1.383       .  S
C3338      F3343   1.382       .  S
C3338      F3344   1.385       .  S
C3345      C3346   1.397       .  A
C3345      C3350   1.405       .  A
C3345      H3352   1.084       .  S
C3346      C3347   1.412       .  A
C3347      C3354   1.519       .  S
C3347      C3348   1.408       .  A
C3348      C3349   1.410       .  A
C3348      H3353   1.081       .  S
C3349      C3350   1.421       .  A
C3350      C3351   1.515       .  S
C3351      F3355   1.382       .  S
C3351      F3356   1.382       .  S
C3351      F3357   1.384       .  S
C3354      F3358   1.381       .  S
C3354      F3359   1.383       .  S
C3354      F3360   1.384       .  S
C3361      C3362   1.403       .  A
C3361      C3366   1.411       .  A
C3361      H3368   1.083       .  S
C3362      C3363   1.412       .  A
C3363      C3370   1.521       .  S
C3363      C3364   1.406       .  A
C3364      C3365   1.409       .  A
C3364      H3369   1.078       .  S
C3365      C3366   1.423       .  A
C3366      C3367   1.518       .  S
C3367      F3371   1.385       .  S
C3367      F3372   1.383       .  S
C3367      F3373   1.383       .  S
C3370      F3374   1.385       .  S
C3370      F3375   1.383       .  S
C3370      F3376   1.381       .  S
C3377      C3378   1.403   1_655  A
C3377      C3382   1.410       .  A
C3377      H3384   1.082       .  S
C3379      C3386   1.517       .  S
C3379      C3380   1.410       .  A
C3380      H3385   1.083       .  S
C3381      C3382   1.420       .  A
C3382      C3383   1.518       .  S
C3383      F3387   1.385       .  S
C3383      F3388   1.383       .  S
C3383      F3389   1.380       .  S
C3386      F3390   1.380       .  S
C3386      F3391   1.382       .  S
C3386      F3392   1.385       .  S
C3393      C3394   1.404       .  A
C3393      C3398   1.411       .  A
C3393      H3400   1.082       .  S
C3395      C3402   1.520       .  S
C3395      C3396   1.410       .  A
C3396      H3401   1.085       .  S
C3397      C3398   1.416       .  A
C3398      C3399   1.517       .  S
C3399      F3403   1.385       .  S
C3399      F3405   1.383       .  S
C3402      F3406   1.383       .  S
C3402      F3408   1.384       .  S
C3409      C3410   1.421       .  A
C3409      C3414   1.407       .  A
C3409      H3416   1.069       .  S
C3410      C3411   1.440       .  A
C3411      C3418   1.526       .  S
C3411      C3412   1.414       .  A
C3412      C3413   1.396       .  A
C3412      H3417   1.085       .  S
C3413      C3414   1.407       .  A
C3414      C3415   1.522       .  S
C3415      F3419   1.384       .  S
C3415      F3420   1.384       .  S
C3415      F3421   1.382       .  S
C3418      F3422   1.373       .  S
C3418      F3423   1.384       .  S
C3418      F3424   1.383       .  S
C3425      C3426   1.401       .  A
C3425      C3430   1.411       .  A
C3425      H3432   1.083       .  S
C3426      C3427   1.420       .  A
C3427      C3434   1.520       .  S
C3427      C3428   1.405       .  A
C3428      C3429   1.405       .  A
C3428      H3433   1.084       .  S
C3429      C3430   1.425       .  A
C3430      C3431   1.519       .  S
C3431      F3435   1.385       .  S
C3431      F3436   1.380       .  S
C3431      F3437   1.383       .  S
C3434      F3438   1.382       .  S
C3434      F3439   1.381       .  S
C3434      F3440   1.385       .  S
C3441      C3446   1.408       .  A
C3441      H3448   1.081       .  S
C3442      C3443   1.417       .  A
C3443      C3450   1.516       .  S
C3443      C3444   1.408       .  A
C3444      C3445   1.404       .  A
C3444      H3449   1.083       .  S
C3446      C3447   1.521       .  S
C3447      F3453   1.383       .  S
C3450      F3454   1.380       .  S
C3457      C3458   1.417   1_565  A
C3457      C3462   1.402       .  A
C3457      H3464   1.070       .  S
C3458      C3459   1.436       .  A
C3459      C3460   1.403       .  A
C3460      C3461   1.399   1_545  A
C3460      H3465   1.085       .  S
C3461      C3462   1.407       .  A
C3462      C3463   1.521       .  S
C3463      F3467   1.385       .  S
C3463      F3468   1.382       .  S
C3466      F3471   1.383       .  S
C3466      F3472   1.375       .  S
C3473      C3474   1.404       .  A
C3473      C3478   1.407       .  A
C3473      H3480   1.082       .  S
C3474      C3475   1.419       .  A
C3475      C3482   1.513       .  S
C3475      C3476   1.410       .  A
C3476      C3477   1.403       .  A
C3476      H3481   1.083       .  S
C3477      C3478   1.421       .  A
C3478      C3479   1.521       .  S
C3479      F3483   1.385       .  S
C3479      F3484   1.383       .  S
C3479      F3485   1.384       .  S
C3482      F3486   1.380       .  S
C3482      F3487   1.380       .  S
C3482      F3488   1.385       .  S
C3489      C3490   1.405       .  A
C3489      C3494   1.402       .  A
C3489      H3496   1.082       .  S
C3490      C3491   1.417       .  A
C3491      C3498   1.514       .  S
C3491      C3492   1.411       .  A
C3492      C3493   1.403       .  A
C3492      H3497   1.083       .  S
C3493      C3494   1.408       .  A
C3494      C3495   1.516       .  S
C3495      F3499   1.384       .  S
C3495      F3500   1.383       .  S
C3495      F3501   1.382       .  S
C3498      F3502   1.381       .  S
C3498      F3503   1.381       .  S
C3498      F3504   1.384       .  S
C3505      C3506   1.398       .  A
C3505      C3510   1.407       .  A
C3505      H3512   1.083       .  S
C3506      C3507   1.410       .  A
C3507      C3514   1.519       .  S
C3507      C3508   1.403       .  A
C3508      C3509   1.408       .  A
C3508      H3513   1.080       .  S
C3509      C3510   1.427       .  A
C3510      C3511   1.520       .  S
C3511      F3515   1.385       .  S
C3511      F3516   1.381       .  S
C3511      F3517   1.384       .  S
C3514      F3518   1.382       .  S
C3514      F3519   1.383       .  S
C3514      F3520   1.383       .  S
C3521      C3522   1.398       .  A
C3521      C3526   1.406       .  A
C3521      H3528   1.083       .  S
C3522      C3523   1.410       .  A
C3523      C3530   1.521       .  S
C3523      C3524   1.402       .  A
C3524      C3525   1.410       .  A
C3524      H3529   1.079       .  S
C3525      C3526   1.424       .  A
C3526      C3527   1.518       .  S
C3527      F3531   1.385       .  S
C3527      F3532   1.383       .  S
C3527      F3533   1.382       .  S
C3530      F3534   1.382       .  S
C3530      F3535   1.385       .  S
C3530      F3536   1.383       .  S
C3537      C3538   1.395       .  A
C3537      C3542   1.403       .  A
C3537      H3544   1.083       .  S
C3538      C3539   1.409       .  A
C3539      C3546   1.519       .  S
C3539      C3540   1.404       .  A
C3540      C3541   1.408       .  A
C3540      H3545   1.080       .  S
C3541      C3542   1.428       .  A
C3542      C3543   1.519       .  S
C3543      F3547   1.385       .  S
C3543      F3548   1.383       .  S
C3543      F3549   1.378       .  S
C3546      F3550   1.380       .  S
C3546      F3551   1.382       .  S
C3546      F3552   1.383       .  S
C3553      C3554   1.406       .  A
C3553      C3558   1.399       .  A
C3553      H3560   1.081       .  S
C3554      C3555   1.424       .  A
C3555      C3562   1.519       .  S
C3555      C3556   1.407       .  A
C3556      C3557   1.400       .  A
C3556      H3561   1.083       .  S
C3557      C3558   1.410       .  A
C3558      C3559   1.520       .  S
C3559      F3563   1.384       .  S
C3559      F3564   1.382       .  S
C3559      F3565   1.383       .  S
C3562      F3566   1.382       .  S
C3562      F3567   1.383       .  S
C3562      F3568   1.386       .  S
C3569      C3570   1.401   1_545  A
C3569      C3574   1.406       .  A
C3569      H3576   1.084       .  S
C3571      C3578   1.516       .  S
C3571      C3572   1.410       .  A
C3572      H3577   1.083       .  S
C3573      C3574   1.418   1_565  A
C3574      C3575   1.518       .  S
C3575      F3579   1.385       .  S
C3575      F3581   1.384       .  S
C3578      F3582   1.376       .  S
C3578      F3584   1.385       .  S
C3585      C3590   1.409       .  A
C3585      H3592   1.082       .  S
C3586      C3587   1.430       .  A
C3587      C3594   1.525       .  S
C3587      C3588   1.400       .  A
C3588      C3589   1.394   1_545  A
C3588      H3593   1.086       .  S
C3590      C3591   1.516       .  S
C3591      F3595   1.385       .  S
C3591      F3597   1.383       .  S
C3594      F3598   1.385       .  S
C3594      F3600   1.383       .  S
C3601      C3602   1.421       .  A
C3601      C3606   1.412       .  A
C3601      H3608   1.070       .  S
C3602      C3603   1.439       .  A
C3603      C3610   1.522       .  S
C3603      C3604   1.406       .  A
C3604      C3605   1.394       .  A
C3604      H3609   1.085       .  S
C3605      C3606   1.412       .  A
C3606      C3607   1.524       .  S
C3607      F3611   1.385       .  S
C3607      F3612   1.381       .  S
C3607      F3613   1.383       .  S
C3610      F3614   1.385       .  S
C3610      F3615   1.383       .  S
C3610      F3616   1.367       .  S
C3617      C3618   1.401       .  A
C3617      C3622   1.405       .  A
C3617      H3624   1.081       .  S
C3618      C3619   1.421       .  A
C3619      C3626   1.517       .  S
C3619      C3620   1.406       .  A
C3620      C3621   1.402       .  A
C3620      H3625   1.083       .  S
C3621      C3622   1.423       .  A
C3622      C3623   1.521       .  S
C3623      F3627   1.385       .  S
C3623      F3628   1.383       .  S
C3623      F3629   1.384       .  S
C3626      F3630   1.377       .  S
C3626      F3631   1.379       .  S
C3626      F3632   1.385       .  S
