geometry optimzed in LAMMPS
_audit_creation_date              2020-12-01 
_audit_creation_method            'lammps2cif' 
_symmetry_space_group_name_H-M    'P1' 
_symmetry_Int_Tables_number       1 
_symmetry_cell_setting            triclinic 
loop_ 
_symmetry_equiv_pos_as_xyz 
  x,y,z 
_cell_length_a                    30.63188372 
_cell_length_b                    29.647170338852824 
_cell_length_c                    27.77845922548459 
_cell_angle_alpha                 89.94664201292775 
_cell_angle_beta                  90.28427331945636 
_cell_angle_gamma                 119.51812143732464 
loop_ 
_atom_site_label 
_atom_site_type_symbol 
_atom_site_fract_x 
_atom_site_fract_y 
_atom_site_fract_z 
_atom_site_charge 
O1          O  0.27390735  0.10858532  0.30650445    -0.81400
C2          C  0.42304811  0.20976129  0.45278527     0.98000
O3          O  0.41795979  0.17499708  0.42371187    -0.70500
O4          O  0.33082564  0.08922428  0.42989711    -0.74100
Al5        Al  0.37109351  0.13438441  0.37667034     1.49000
C6          C  0.28325246  0.06405788  0.42972675     0.93200
O7          O  0.26327538  0.15540399  0.43312945    -0.80300
O8          O  0.34036322  0.24662338  0.32427924    -0.73900
Al9        Al  0.27086651  0.13389316  0.37029207     1.90100
O10         O  0.31631835  0.23811570  0.42379223    -0.72900
O11         O  0.42492760  0.25071022  0.35009612    -0.72800
O12         O  0.40065246  0.23557522  0.44530556    -0.78400
O13         O  0.41603802  0.17653043  0.32489850    -0.76600
O14         O  0.33732599  0.16881124  0.37707583    -1.12800
O15         O  0.33032375  0.08668084  0.32838290    -0.72000
C16         C  0.29779810  0.08435098  0.29863211     0.98800
C17         C  0.28091255  0.20194465  0.44694406     0.95200
Al18       Al  0.36818596  0.23741977  0.38516673     1.55600
O19         O  0.25973967  0.07114137  0.39646531    -0.76600
C20         C  0.43806934  0.22570732  0.32293579     0.99300
C21         C  0.29386739  0.22211697  0.31455849     0.94200
O22         O  0.26444796  0.18771624  0.34271992    -0.81900
C23         C  0.49312910  0.45584218  0.50347530     0.03600
C24         C  0.03525509  0.50238880  0.48893707    -0.12600
C25         C  0.03171142  0.04712581  0.47695056     0.01100
C26         C  0.98509989  0.04439461  0.48010261    -0.11100
C27         C  0.44515446  0.00097498  0.50069792     0.03600
C28         C  0.45065315  0.45935473  0.51617921    -0.10500
H29         H  0.07139755  0.50486274  0.48899012     0.09200
H30         H  0.97986828  0.07617845  0.46808935     0.06700
H31         H  0.42058572  0.42928551  0.53667179     0.06500
N32         N  0.25784611  0.99386285  0.49442935    -0.03000
C33         C  0.21501862  0.46598785  0.01990295    -0.00400
C34         C  0.18196648  0.48378703  0.01047832    -0.23300
C35         C  0.20460867  0.02261568  0.47757984    -0.23500
C36         C  0.25120288  0.02838361  0.46801479    -0.00500
H37         H  0.14576108  0.47074763  0.02676454     0.13200
H38         H  0.18888339  0.04459811  0.46223376     0.13300
N39         N  0.22309704  0.21937033  0.50158105    -0.03000
C40         C  0.23368979  0.24793669  0.04325694    -0.00400
C41         C  0.28003650  0.25922853  0.06104181    -0.23300
C42         C  0.29921922  0.23782668  0.53007811    -0.23500
C43         C  0.26534640  0.21565612  0.49310299    -0.00500
H44         H  0.29852001  0.28187387  0.09280558     0.13200
H45         H  0.33510092  0.23985872  0.53307125     0.13300
N46         N  0.48994174  0.25878255  0.01820441    -0.03000
C47         C  0.01701379  0.24325617  0.04633614    -0.00400
C48         C  0.99733185  0.19025412  0.04254260    -0.23300
C49         C  0.45786699  0.17240840  0.51131188    -0.23500
C50         C  0.45398383  0.21475864  0.49616175    -0.00500
H51         H  0.01099116  0.16689071  0.05999299     0.13200
H52         H  0.43589958  0.13277556  0.49880590     0.13300
O53         O  0.23587296  0.41568730  0.07337988    -0.81400
C54         C  0.07901242  0.30062059  0.20167840     0.98000
O55         O  0.10742037  0.34674204  0.18919587    -0.70500
O56         O  0.18757916  0.43034006  0.16027425    -0.74100
Al57       Al  0.13432640  0.36974162  0.12798910     1.49000
C58         C  0.22919200  0.43944290  0.17821344     0.93200
O59         O  0.24498844  0.31941175  0.16098587    -0.80300
O60         O  0.17252438  0.24669799  0.09705638    -0.73900
Al61       Al  0.23233071  0.36370035  0.11786336     1.90100
O62         O  0.17072050  0.27033284  0.19250805    -0.74300
O63         O  0.08976370  0.25361685  0.08437769    -0.72800
O64         O  0.08180287  0.26428142  0.18101797    -0.78400
O65         O  0.07345169  0.31725351  0.09517559    -0.76600
O66         O  0.16611184  0.33289726  0.12761421    -1.12800
O67         O  0.15776090  0.39791797  0.06745072    -0.72000
C68         C  0.20273778  0.42370987  0.05454126     0.98800
C69         C  0.21718611  0.28567303  0.19128380     0.95200
Al70       Al  0.13168751  0.26476244  0.13776021     1.55600
O71         O  0.24650125  0.40933357  0.17015524    -0.76600
C72         C  0.06282708  0.27416335  0.07606429     0.99300
C73         C  0.20668918  0.27199479  0.06674981     0.94200
O74         O  0.22538181  0.32065424  0.06378882    -0.81900
C75         C  0.01112848  0.05518566  0.25705455     0.03600
C76         C  0.05630306  0.05390406  0.25442027    -0.12600
C77         C  0.05625484  0.50646011  0.25149564     0.01100
C78         C  0.50982388  0.45998908  0.25025191    -0.11100
C79         C  0.46435375  0.46091743  0.25307403     0.03600
C80         C  0.46539137  0.50856725  0.25660170    -0.10500
H81         H  0.09160840  0.09002802  0.25427845     0.09200
H82         H  0.50888565  0.42320691  0.24643646     0.06700
H83         H  0.43043001  0.50939809  0.25836523     0.06500
N84         N  0.24843949  0.51660622  0.23374224    -0.03000
C85         C  0.29181890  0.05346414  0.25465966    -0.00400
C86         C  0.33183549  0.04827704  0.23859721    -0.23300
C87         C  0.31289525  0.50675093  0.20811191    -0.23500
C88         C  0.26166758  0.48739679  0.20581468    -0.00500
H89         H  0.37050891  0.07024727  0.25050478     0.13200
H90         H  0.33418567  0.49121183  0.19065133     0.13300
N91         N  0.00775876  0.24665237  0.26060076    -0.03000
C92         C  0.47835826  0.25844376  0.28848344    -0.00400
C93         C  0.49174323  0.31002469  0.28213270    -0.23300
C94         C  0.03049494  0.33063679  0.25035279    -0.23500
C95         C  0.04018509  0.29148500  0.23777613    -0.00500
H96         H  0.47503867  0.33079772  0.29895231     0.13200
H97         H  0.04931010  0.37006437  0.23716402     0.13300
N98         N  0.27563566  0.27140784  0.24859495    -0.03000
C99         C  0.26971972  0.22754548  0.27032726    -0.00400
C100        C  0.22642641  0.18474844  0.25367852    -0.23300
C101        C  0.20430897  0.20216799  0.22188762    -0.23500
C102        C  0.23463433  0.25516357  0.21920254    -0.00500
H103        H  0.21069875  0.14506414  0.26584023     0.13200
H104        H  0.16874174  0.17873870  0.20373803     0.13300
C105        C  0.03231851  0.18722383  0.29667738    -0.08700
C106        C  0.00833120  0.19866901  0.25955354     0.07500
C107        C  0.48588090  0.16345786  0.22145860    -0.02500
C108        C  0.48698689  0.11684182  0.22126051    -0.06900
C109        C  0.01123197  0.10520403  0.25832335     0.06600
C110        C  0.03429473  0.14110458  0.29612623    -0.02000
Br111      Br  0.06738932  0.12841722  0.34859363    -0.01700
H112        H  0.04970722  0.21450030  0.32599097     0.10500
H113        H  0.46928923  0.08977000  0.19191606     0.08500
Br114      Br  0.45364637  0.17811190  0.16931652    -0.02100
C115        C  0.13934888  0.03830051  0.21186221    -0.08700
C116        C  0.10490554  0.50652969  0.24697114     0.07500
C117        C  0.11871684  0.47751438  0.27782275    -0.02500
C118        C  0.16572173  0.48044373  0.27275977    -0.06900
C119        C  0.19968157  0.51230093  0.23766921     0.06600
C120        C  0.18623566  0.04139116  0.20724737    -0.02000
Br121      Br  0.23158314  0.08639649  0.15929090    -0.01700
H122        H  0.12982015  0.06106946  0.18794054     0.10500
H123        H  0.17628726  0.45862319  0.29680032     0.08500
Br124      Br  0.07680727  0.43633580  0.32966979    -0.02100
C125        C  0.38485849  0.39622965  0.29257225    -0.08700
C126        C  0.41528280  0.41240473  0.25139115     0.07500
C127        C  0.39721847  0.38352891  0.20854789    -0.02500
C128        C  0.35031465  0.33835615  0.20789453    -0.06900
C129        C  0.32052567  0.32129119  0.24935295     0.06600
C130        C  0.33782489  0.35102307  0.29183036    -0.02000
Br131      Br  0.29782365  0.33227163  0.34897562    -0.01700
H132        H  0.39782358  0.41880840  0.32542346     0.10500
H133        H  0.33735278  0.31567577  0.17514692     0.08500
Br134      Br  0.43462160  0.40509288  0.14975774    -0.02100
C135        C  0.16584343  0.13293315  0.46903559    -0.08700
C136        C  0.17383963  0.18184558  0.48329999     0.07500
C137        C  0.13182318  0.18960467  0.98194114    -0.02500
C138        C  0.08339782  0.14597636  0.47801809    -0.06900
C139        C  0.07764642  0.09698704  0.46573926     0.06600
C140        C  0.12029345  0.09564234  0.45118261    -0.02000
Br141      Br  0.11779677  0.04647209  0.40468963    -0.01700
H142        H  0.19322628  0.12134932  0.47499057     0.10500
H143        H  0.05114479  0.15077690  0.98422333     0.08500
Br144      Br  0.13801031  0.25687244  0.97825257    -0.02100
C145        C  0.03711045  0.40128151  0.99828488    -0.08700
C146        C  0.49304445  0.40465736  0.50598983     0.07500
C147        C  0.44784942  0.35692289  0.51116457    -0.02500
C148        C  0.44951124  0.31185319  0.52202289    -0.06900
C149        C  0.49321972  0.30898340  0.51577256     0.06600
C150        C  0.03657095  0.35361101  0.00048012    -0.02000
Br151      Br  0.09191650  0.34932793  0.97394699    -0.01700
H152        H  0.07135336  0.43425703  0.98661724     0.10500
H153        H  0.41531697  0.27670752  0.52973735     0.08500
Br154      Br  0.38455418  0.34555057  0.48584589    -0.02100
C155        C  0.36630403  0.47824282  0.45937232    -0.08700
C156        C  0.39577315  0.99639780  0.50110138     0.07500
C157        C  0.37797675  0.00998163  0.04183211    -0.02500
C158        C  0.33154056  0.00766032  0.03957809    -0.06900
C159        C  0.30263705  0.99088597  0.49738607     0.06600
C160        C  0.31954523  0.47506588  0.45742575    -0.02000
Br161      Br  0.27973659  0.44874158  0.40008440    -0.01700
H162        H  0.37990391  0.46685703  0.42829796     0.10500
H163        H  0.31815796  0.01975227  0.07029816     0.08500
Br164      Br  0.41629084  0.03260189  0.10030842    -0.02100
O165        O  0.27390708  0.10858147  0.80650561    -0.81400
C166        C  0.42305108  0.20976130  0.95278350     0.98000
O167        O  0.41796212  0.17499690  0.92371012    -0.70500
O168        O  0.33082826  0.08922507  0.92989802    -0.74100
Al169      Al  0.37109471  0.13438326  0.87667018     1.49000
C170        C  0.28325512  0.06405930  0.92972948     0.93200
O171        O  0.26327548  0.15540493  0.93312903    -0.80300
O172        O  0.34036384  0.24662169  0.82427798    -0.73900
Al173      Al  0.27086709  0.13389180  0.87029239     1.90100
O174        O  0.31632005  0.23811582  0.92379083    -0.72900
O175        O  0.42492817  0.25070790  0.85009538    -0.72800
O176        O  0.40065433  0.23557437  0.94530457    -0.78400
O177        O  0.41603886  0.17652830  0.82489761    -0.76600
O178        O  0.33732681  0.16880995  0.87707554    -1.12800
O179        O  0.33032412  0.08667820  0.82838419    -0.72000
C180        C  0.29779792  0.08434724  0.79863356     0.98800
C181        C  0.28091341  0.20194601  0.94694280     0.95200
Al182      Al  0.36818700  0.23741843  0.88516565     1.55600
O183        O  0.25974096  0.07114132  0.89646839    -0.76600
C184        C  0.43807085  0.22570530  0.82293582     0.99300
C185        C  0.29386804  0.22211525  0.81455684     0.94200
O186        O  0.26444842  0.18771374  0.84271762    -0.81900
C187        C  0.49313247  0.45584166  0.00347700     0.03600
C188        C  0.03525782  0.50238866  0.98893897    -0.12600
C189        C  0.03171327  0.04712479  0.97695037     0.01100
C190        C  0.98510101  0.04439222  0.98010087    -0.11100
C191        C  0.44515550  0.00097183  0.00069588     0.03600
C192        C  0.45065499  0.45935232  0.01617855    -0.10500
H193        H  0.07140040  0.50486353  0.98899294     0.09200
H194        H  0.97986890  0.07617570  0.96808718     0.06700
H195        H  0.42058650  0.42928123  0.03666927     0.06500
N196        N  0.25784909  0.99386448  0.99443183    -0.03000
C197        C  0.21501455  0.46598309  0.51989778    -0.00400
C198        C  0.18195982  0.48377806  0.51046914    -0.23300
C199        C  0.20461565  0.02262388  0.97758851    -0.23500
C200        C  0.25120742  0.02838761  0.96801965    -0.00500
H201        H  0.14575272  0.47073549  0.52675236     0.13200
H202        H  0.18889177  0.04460747  0.96224417     0.13300
N203        N  0.22309794  0.21937203  0.00158104    -0.03000
C204        C  0.23368778  0.24793273  0.54325808    -0.00400
C205        C  0.28003234  0.25922019  0.56104572    -0.23300
C206        C  0.29922324  0.23783506  0.03007419    -0.23500
C207        C  0.26534830  0.21565989  0.99310144    -0.00500
H208        H  0.29851461  0.28186311  0.59281102     0.13200
H209        H  0.33510602  0.23986949  0.03306614     0.13300
N210        N  0.48993767  0.25878220  0.51820606    -0.03000
C211        C  0.01700903  0.24325563  0.54633833    -0.00400
C212        C  0.99732510  0.19025317  0.54254683    -0.23300
C213        C  0.45787375  0.17240940  0.01130726    -0.23500
C214        C  0.45398872  0.21475915  0.99615890    -0.00500
H215        H  0.01098353  0.16688961  0.55999784     0.13200
H216        H  0.43590721  0.13277662  0.99880032     0.13300
O217        O  0.23587105  0.41568521  0.57337694    -0.81400
C218        C  0.07901387  0.30062039  0.70167887     0.98000
O219        O  0.10742108  0.34674177  0.68919534    -0.70500
O220        O  0.18757935  0.43033958  0.66027156    -0.74100
Al221      Al  0.13432560  0.36974050  0.62798778     1.49000
C222        C  0.22919176  0.43944166  0.67821119     0.93200
O223        O  0.24498735  0.31941046  0.66098474    -0.80300
O224        O  0.17252165  0.24669585  0.59705463    -0.73900
Al225      Al  0.23232948  0.36369855  0.61786155     1.90100
O226        O  0.17071924  0.27032999  0.69250598    -0.74300
O227        O  0.08976070  0.25361582  0.58437656    -0.72800
O228        O  0.08180264  0.26428079  0.68101745    -0.78400
O229        O  0.07344968  0.31725286  0.59517604    -0.76600
O230        O  0.16611058  0.33289561  0.62761266    -1.12800
O231        O  0.15775855  0.39791487  0.56744830    -0.72000
C232        C  0.20273517  0.42370675  0.55453800     0.98800
C233        C  0.21718510  0.28567108  0.69128224     0.95200
Al234      Al  0.13168571  0.26476083  0.63775867     1.55600
O235        O  0.24650032  0.40933187  0.67015302    -0.76600
C236        C  0.06282406  0.27416267  0.57606443     0.99300
C237        C  0.20668791  0.27199232  0.56674938     0.94200
O238        O  0.22538119  0.32065182  0.56378784    -0.81900
C239        C  0.01113091  0.05518434  0.75705717     0.03600
C240        C  0.05630465  0.05390141  0.75441983    -0.12600
C241        C  0.05625506  0.50645699  0.75149362     0.01100
C242        C  0.50982318  0.45998668  0.75025021    -0.11100
C243        C  0.46435381  0.46091631  0.75307538     0.03600
C244        C  0.46539302  0.50856673  0.75660566    -0.10500
H245        H  0.09161052  0.09002475  0.75427686     0.09200
H246        H  0.50888395  0.42320424  0.74643338     0.06700
H247        H  0.43043214  0.50939866  0.75837117     0.06500
N248        N  0.24843956  0.51660376  0.73374165    -0.03000
C249        C  0.29181881  0.05345985  0.75466138    -0.00400
C250        C  0.33183513  0.04827175  0.73859972    -0.23300
C251        C  0.31289485  0.50674717  0.70811252    -0.23500
C252        C  0.26166754  0.48739475  0.70581344    -0.00500
H253        H  0.37050846  0.07024049  0.75050873     0.13200
H254        H  0.33418504  0.49120768  0.69065206     0.13300
N255        N  0.00776192  0.24665167  0.76060224    -0.03000
C256        C  0.47836182  0.25844277  0.78848574    -0.00400
C257        C  0.49174870  0.31002459  0.78213786    -0.23300
C258        C  0.03050042  0.33063722  0.75035817    -0.23500
C259        C  0.04018893  0.29148502  0.73777903    -0.00500
H260        H  0.47504484  0.33079767  0.79895865     0.13200
H261        H  0.04931614  0.37006518  0.73717050     0.13300
N262        N  0.27563521  0.27140703  0.74859440    -0.03000
C263        C  0.26972045  0.22754447  0.77032561    -0.00400
C264        C  0.22642804  0.18474707  0.75367570    -0.23300
C265        C  0.20431012  0.20216638  0.72188506    -0.23500
C266        C  0.23463410  0.25516226  0.71920135    -0.00500
H267        H  0.21070141  0.14506241  0.76583614     0.13200
H268        H  0.16874329  0.17873660  0.70373467     0.13300
C269        C  0.03232846  0.18722693  0.79667552    -0.08700
C270        C  0.00833511  0.19866867  0.75955496     0.07500
C271        C  0.48587925  0.16345416  0.72146333    -0.02500
C272        C  0.48698515  0.11683807  0.72126578    -0.06900
C273        C  0.01123563  0.10520339  0.75832561     0.06600
C274        C  0.03430470  0.14110760  0.79612480    -0.02000
Br275      Br  0.06740749  0.12842528  0.84858826    -0.01700
H276        H  0.04972186  0.21450628  0.82598644     0.10500
H277        H  0.46928283  0.08976349  0.69192373     0.08500
Br278      Br  0.45363772  0.17810389  0.66932482    -0.02100
C279        C  0.13934730  0.03829417  0.71185782    -0.08700
C280        C  0.10490494  0.50652543  0.74696816     0.07500
C281        C  0.11871719  0.47751258  0.77782189    -0.02500
C282        C  0.16572256  0.48044292  0.77276009    -0.06900
C283        C  0.19968165  0.51229833  0.73766821     0.06600
C284        C  0.18623441  0.04138544  0.70724364    -0.02000
Br285      Br  0.23158023  0.08638689  0.65928416    -0.01700
H286        H  0.12981756  0.06106112  0.68793468     0.10500
H287        H  0.17628889  0.45862403  0.79680232     0.08500
Br288      Br  0.07680795  0.43633627  0.82967004    -0.02100
C289        C  0.38485923  0.39622708  0.79257404    -0.08700
C290        C  0.41528203  0.41240448  0.75139195     0.07500
C291        C  0.39721544  0.38353194  0.70854727    -0.02500
C292        C  0.35031186  0.33835897  0.70789372    -0.06900
C293        C  0.32052458  0.32129108  0.74935309     0.06600
C294        C  0.33782526  0.35102079  0.79183170    -0.02000
Br295      Br  0.29782504  0.33226778  0.84897775    -0.01700
H296        H  0.39782576  0.41880390  0.82542631     0.10500
H297        H  0.33734887  0.31568095  0.67514508     0.08500
Br298      Br  0.43461496  0.40510098  0.64975543    -0.02100
C299        C  0.16584529  0.13293360  0.96903856    -0.08700
C300        C  0.17384038  0.18184591  0.98330132     0.07500
C301        C  0.13182281  0.18960512  0.48194174    -0.02500
C302        C  0.08339850  0.14597550  0.97801618    -0.06900
C303        C  0.07764810  0.09698624  0.96573882     0.06600
C304        C  0.12029610  0.09564196  0.95118466    -0.02000
Br305      Br  0.11780208  0.04647099  0.90469383    -0.01700
H306        H  0.19322884  0.12135154  0.97499536     0.10500
H307        H  0.05114442  0.15077826  0.48422721     0.08500
Br308      Br  0.13801058  0.25687332  0.47825362    -0.02100
C309        C  0.03710413  0.40127935  0.49827592    -0.08700
C310        C  0.49304902  0.40465781  0.00599209     0.07500
C311        C  0.44785350  0.35692270  0.01115981    -0.02500
C312        C  0.44951428  0.31185257  0.02201813    -0.06900
C313        C  0.49322364  0.30898363  0.01577211     0.06600
C314        C  0.03656469  0.35360889  0.50047370    -0.02000
Br315      Br  0.09190701  0.34932218  0.47393697    -0.01700
H316        H  0.07134481  0.43425300  0.48660189     0.10500
H317        H  0.41531901  0.27670593  0.02972855     0.08500
Br318      Br  0.38456259  0.34555254  0.98583092    -0.02100
C319        C  0.36630593  0.47824406  0.95936980    -0.08700
C320        C  0.39577413  0.99639450  0.00110000     0.07500
C321        C  0.37797624  0.00998824  0.54183171    -0.02500
C322        C  0.33153948  0.00766568  0.53957658    -0.06900
C323        C  0.30263896  0.99088524  0.99738680     0.06600
C324        C  0.31954765  0.47506872  0.95742405    -0.02000
Br325      Br  0.27974138  0.44875260  0.90008029    -0.01700
H326        H  0.37990641  0.46686116  0.92829377     0.10500
H327        H  0.31815682  0.01975959  0.57029514     0.08500
Br328      Br  0.41629085  0.03261273  0.60030739    -0.02100
O329        O  0.27390740  0.60858527  0.30650448    -0.81400
C330        C  0.42304801  0.70976117  0.45278524     0.98000
O331        O  0.41795981  0.67499711  0.42371168    -0.70500
O332        O  0.33082574  0.58922435  0.42989711    -0.74100
Al333      Al  0.37109350  0.63438442  0.37667029     1.49000
C334        C  0.28325254  0.56405785  0.42972677     0.93200
O335        O  0.26327537  0.65540391  0.43312938    -0.80300
O336        O  0.34036306  0.74662331  0.32427914    -0.73900
Al337      Al  0.27086651  0.63389308  0.37029206     1.90100
O338        O  0.31631834  0.73811562  0.42379220    -0.72900
O339        O  0.42492762  0.75071025  0.35009604    -0.72800
O340        O  0.40065245  0.73557517  0.44530555    -0.78400
O341        O  0.41603792  0.67653044  0.32489838    -0.76600
O342        O  0.33732595  0.66881118  0.37707582    -1.12800
O343        O  0.33032374  0.58668077  0.32838302    -0.72000
C344        C  0.29779824  0.58435106  0.29863210     0.98800
C345        C  0.28091251  0.70194457  0.44694400     0.95200
Al346      Al  0.36818592  0.73741972  0.38516668     1.55600
O347        O  0.25973972  0.57114131  0.39646535    -0.76600
C348        C  0.43806931  0.72570734  0.32293568     0.99300
C349        C  0.29386723  0.72211685  0.31455842     0.94200
O350        O  0.26444788  0.68771612  0.34271989    -0.81900
C351        C  0.49312908  0.95584198  0.50347552     0.03600
C352        C  0.03525494  0.00238864  0.48893720    -0.12600
C353        C  0.03171156  0.54712600  0.47695037     0.01100
C354        C  0.98510004  0.54439484  0.48010245    -0.11100
C355        C  0.44515442  0.50097519  0.50069790     0.03600
C356        C  0.45065321  0.95935463  0.51617944    -0.10500
H357        H  0.07139719  0.00486249  0.48899006     0.09200
H358        H  0.97986841  0.57617883  0.46808910     0.06700
H359        H  0.42058573  0.92928536  0.53667215     0.06500
N360        N  0.25784618  0.49386286  0.49442948    -0.03000
C361        C  0.21501879  0.96598800  0.01990296    -0.00400
C362        C  0.18196667  0.98378716  0.01047831    -0.23300
C363        C  0.20460883  0.52261556  0.47757992    -0.23500
C364        C  0.25120301  0.52838358  0.46801490    -0.00500
H365        H  0.14576125  0.97074764  0.02676442     0.13200
H366        H  0.18888385  0.54459770  0.46223419     0.13300
N367        N  0.22309705  0.71937042  0.50158086    -0.03000
C368        C  0.23368979  0.74793670  0.04325684    -0.00400
C369        C  0.28003644  0.75922837  0.06104176    -0.23300
C370        C  0.29921912  0.73782654  0.53007805    -0.23500
C371        C  0.26534633  0.71565605  0.49310292    -0.00500
H372        H  0.29851986  0.78187362  0.09280544     0.13200
H373        H  0.33510091  0.73985846  0.53307126     0.13300
N374        N  0.48994172  0.75878253  0.01820446    -0.03000
C375        C  0.01701377  0.74325627  0.04633600    -0.00400
C376        C  0.99733165  0.69025419  0.04254258    -0.23300
C377        C  0.45786694  0.67240824  0.51131173    -0.23500
C378        C  0.45398371  0.71475844  0.49616168    -0.00500
H379        H  0.01099080  0.66689085  0.05999287     0.13200
H380        H  0.43589948  0.63277524  0.49880556     0.13300
O381        O  0.23587306  0.91568742  0.07337990    -0.81400
C382        C  0.07901251  0.80062074  0.20167836     0.98000
O383        O  0.10742050  0.84674221  0.18919584    -0.70500
O384        O  0.18757921  0.93034004  0.16027414    -0.74100
Al385      Al  0.13432649  0.86974168  0.12798905     1.49000
C386        C  0.22919197  0.93944282  0.17821346     0.93200
O387        O  0.24498836  0.81941166  0.16098586    -0.80300
O388        O  0.17252439  0.74669795  0.09705639    -0.73900
Al389      Al  0.23233073  0.86370034  0.11786337     1.90100
O390        O  0.17072039  0.77033292  0.19250807    -0.74300
O391        O  0.08976364  0.75361689  0.08437762    -0.72800
O392        O  0.08180290  0.76428156  0.18101793    -0.78400
O393        O  0.07345170  0.81725359  0.09517553    -0.76600
O394        O  0.16611187  0.83289728  0.12761420    -1.12800
O395        O  0.15776099  0.89791800  0.06745068    -0.72000
C396        C  0.20273788  0.92370995  0.05454124     0.98800
C397        C  0.21718598  0.78567298  0.19128379     0.95200
Al398      Al  0.13168748  0.76476247  0.13776020     1.55600
O399        O  0.24650124  0.90933350  0.17015528    -0.76600
C400        C  0.06282705  0.77416339  0.07606423     0.99300
C401        C  0.20668917  0.77199476  0.06674978     0.94200
O402        O  0.22538180  0.82065420  0.06378881    -0.81900
C403        C  0.01112825  0.55518537  0.25705432     0.03600
C404        C  0.05630283  0.55390371  0.25442019    -0.12600
C405        C  0.05625504  0.00646049  0.25149562     0.01100
C406        C  0.50982378  0.95998945  0.25025190    -0.11100
C407        C  0.46435362  0.96091771  0.25307397     0.03600
C408        C  0.46539130  0.00856757  0.25660172    -0.10500
H409        H  0.09160804  0.59002762  0.25427838     0.09200
H410        H  0.50888556  0.92320759  0.24643647     0.06700
H411        H  0.43042976  0.00939851  0.25836536     0.06500
N412        N  0.24843935  0.01660615  0.23374223    -0.03000
C413        C  0.29181907  0.55346420  0.25465968    -0.00400
C414        C  0.33183563  0.54827700  0.23859728    -0.23300
C415        C  0.31289508  0.00675094  0.20811190    -0.23500
C416        C  0.26166744  0.98739671  0.20581473    -0.00500
H417        H  0.37050921  0.57024732  0.25050500     0.13200
H418        H  0.33418544  0.99121184  0.19065127     0.13300
N419        N  0.00775877  0.74665238  0.26060055    -0.03000
C420        C  0.47835818  0.75844378  0.28848327    -0.00400
C421        C  0.49174319  0.81002478  0.28213262    -0.23300
C422        C  0.03049511  0.83063694  0.25035281    -0.23500
C423        C  0.04018522  0.79148514  0.23777609    -0.00500
H424        H  0.47503862  0.83079780  0.29895227     0.13200
H425        H  0.04931033  0.87006470  0.23716397     0.13300
N426        N  0.27563552  0.77140772  0.24859487    -0.03000
C427        C  0.26971951  0.72754534  0.27032721    -0.00400
C428        C  0.22642607  0.68474830  0.25367855    -0.23300
C429        C  0.20430864  0.70216788  0.22188766    -0.23500
C430        C  0.23463410  0.75516347  0.21920255    -0.00500
H431        H  0.21069834  0.64506398  0.26584023     0.13200
H432        H  0.16874120  0.67873849  0.20373800     0.13300
C433        C  0.03231833  0.68722361  0.29667702    -0.08700
C434        C  0.00833119  0.69866899  0.25955322     0.07500
C435        C  0.48588079  0.66345775  0.22145829    -0.02500
C436        C  0.48698670  0.61684155  0.22126019    -0.06900
C437        C  0.01123186  0.60520381  0.25832295     0.06600
C438        C  0.03429452  0.64110433  0.29612589    -0.02000
Br439      Br  0.06738893  0.62841701  0.34859344    -0.01700
H440        H  0.04970701  0.71450003  0.32599071     0.10500
H441        H  0.46928888  0.58976947  0.19191535     0.08500
Br442      Br  0.45364653  0.67811202  0.16931612    -0.02100
C443        C  0.13934876  0.53830022  0.21186231    -0.08700
C444        C  0.10490564  0.00653005  0.24697110     0.07500
C445        C  0.11871677  0.97751457  0.27782266    -0.02500
C446        C  0.16572154  0.98044377  0.27275963    -0.06900
C447        C  0.19968143  0.01230087  0.23766909     0.06600
C448        C  0.18623567  0.54139116  0.20724753    -0.02000
Br449      Br  0.23158306  0.58639661  0.15929104    -0.01700
H450        H  0.12982006  0.56106904  0.18794091     0.10500
H451        H  0.17628701  0.95862316  0.29680024     0.08500
Br452      Br  0.07680715  0.93633591  0.32966965    -0.02100
C453        C  0.38485845  0.89622949  0.29257223    -0.08700
C454        C  0.41528264  0.91240483  0.25139105     0.07500
C455        C  0.39721828  0.88352895  0.20854781    -0.02500
C456        C  0.35031443  0.83835620  0.20789440    -0.06900
C457        C  0.32052548  0.82129114  0.24935288     0.06600
C458        C  0.33782484  0.85102290  0.29183036    -0.02000
Br459      Br  0.29782366  0.83227149  0.34897565    -0.01700
H460        H  0.39782352  0.91880817  0.32542331     0.10500
H461        H  0.33735264  0.81567588  0.17514677     0.08500
Br462      Br  0.43462140  0.90509289  0.14975766    -0.02100
C463        C  0.16584346  0.63293326  0.46903530    -0.08700
C464        C  0.17383963  0.68184570  0.48329972     0.07500
C465        C  0.13182317  0.68960470  0.98194109    -0.02500
C466        C  0.08339788  0.64597643  0.47801807    -0.06900
C467        C  0.07764653  0.59698715  0.46573914     0.06600
C468        C  0.12029350  0.59564244  0.45118243    -0.02000
Br469      Br  0.11779690  0.54647200  0.40468970    -0.01700
H470        H  0.19322579  0.62134946  0.47499037     0.10500
H471        H  0.05114484  0.65077693  0.98422335     0.08500
Br472      Br  0.13801044  0.75687258  0.97825255    -0.02100
C473        C  0.03711048  0.90128156  0.99828456    -0.08700
C474        C  0.49304425  0.90465710  0.50598992     0.07500
C475        C  0.44784921  0.85692269  0.51116456    -0.02500
C476        C  0.44951103  0.81185296  0.52202286    -0.06900
C477        C  0.49321951  0.80898315  0.51577258     0.06600
C478        C  0.03657098  0.85361108  0.00047998    -0.02000
Br479      Br  0.09191655  0.84932795  0.97394694    -0.01700
H480        H  0.07135337  0.93425703  0.98661707     0.10500
H481        H  0.41531670  0.77670725  0.52973727     0.08500
Br482      Br  0.38455401  0.84555063  0.48584588    -0.02100
C483        C  0.36630405  0.97824268  0.45937217    -0.08700
C484        C  0.39577315  0.49639804  0.50110145     0.07500
C485        C  0.37797663  0.50998162  0.04183213    -0.02500
C486        C  0.33154043  0.50766028  0.03957813    -0.06900
C487        C  0.30263708  0.49088603  0.49738629     0.06600
C488        C  0.31954524  0.97506583  0.45742556    -0.02000
Br489      Br  0.27973662  0.94874143  0.40008425    -0.01700
H490        H  0.37990401  0.96685689  0.42829760     0.10500
H491        H  0.31815789  0.51975225  0.07029817     0.08500
Br492      Br  0.41629066  0.53260183  0.10030846    -0.02100
O493        O  0.27390701  0.60858136  0.80650560    -0.81400
C494        C  0.42305103  0.70976117  0.95278357     0.98000
O495        O  0.41796205  0.67499677  0.92371018    -0.70500
O496        O  0.33082814  0.58922493  0.92989805    -0.74100
Al497      Al  0.37109468  0.63438317  0.87667019     1.49000
C498        C  0.28325498  0.56405924  0.92972953     0.93200
O499        O  0.26327543  0.65540488  0.93312897    -0.80300
O500        O  0.34036389  0.74662164  0.82427797    -0.73900
Al501      Al  0.27086706  0.63389175  0.87029237     1.90100
O502        O  0.31632006  0.73811574  0.92379078    -0.72900
O503        O  0.42492821  0.75070787  0.85009536    -0.72800
O504        O  0.40065434  0.73557430  0.94530458    -0.78400
O505        O  0.41603895  0.67652830  0.82489760    -0.76600
O506        O  0.33732680  0.66880987  0.87707554    -1.12800
O507        O  0.33032408  0.58667813  0.82838417    -0.72000
C508        C  0.29779786  0.58434713  0.79863355     0.98800
C509        C  0.28091333  0.70194598  0.94694269     0.95200
Al510      Al  0.36818702  0.73741835  0.88516564     1.55600
O511        O  0.25974088  0.57114129  0.89646841    -0.76600
C512        C  0.43807093  0.72570531  0.82293580     0.99300
C513        C  0.29386808  0.72211526  0.81455684     0.94200
O514        O  0.26444843  0.68771370  0.84271755    -0.81900
C515        C  0.49313249  0.95584166  0.00347705     0.03600
C516        C  0.03525785  0.00238873  0.98893899    -0.12600
C517        C  0.03171324  0.54712474  0.97695039     0.01100
C518        C  0.98510099  0.54439218  0.98010087    -0.11100
C519        C  0.44515546  0.50097187  0.00069585     0.03600
C520        C  0.45065495  0.95935220  0.01617854    -0.10500
H521        H  0.07140050  0.00486363  0.98899309     0.09200
H522        H  0.97986888  0.57617566  0.96808714     0.06700
H523        H  0.42058638  0.92928093  0.03666941     0.06500
N524        N  0.25784895  0.49386442  0.99443189    -0.03000
C525        C  0.21501449  0.96598320  0.51989776    -0.00400
C526        C  0.18195966  0.98377818  0.51046911    -0.23300
C527        C  0.20461550  0.52262379  0.97758857    -0.23500
C528        C  0.25120727  0.52838752  0.96801969    -0.00500
H529        H  0.14575243  0.97073558  0.52675251     0.13200
H530        H  0.18889167  0.54460740  0.96224422     0.13300
N531        N  0.22309791  0.71937207  0.00158095    -0.03000
C532        C  0.23368769  0.74793269  0.54325797    -0.00400
C533        C  0.28003221  0.75922001  0.56104569    -0.23300
C534        C  0.29922320  0.73783491  0.03007411    -0.23500
C535        C  0.26534828  0.71565994  0.99310132    -0.00500
H536        H  0.29851441  0.78186276  0.59281088     0.13200
H537        H  0.33510605  0.73986928  0.03306596     0.13300
N538        N  0.48993744  0.75878196  0.51820614    -0.03000
C539        C  0.01700892  0.74325544  0.54633831    -0.00400
C540        C  0.99732496  0.69025294  0.54254679    -0.23300
C541        C  0.45787386  0.67240938  0.01130729    -0.23500
C542        C  0.45398876  0.71475910  0.99615892    -0.00500
H543        H  0.01098336  0.66688933  0.55999781     0.13200
H544        H  0.43590738  0.63277650  0.99880033     0.13300
O545        O  0.23587096  0.91568528  0.57337688    -0.81400
C546        C  0.07901389  0.80062049  0.70167881     0.98000
O547        O  0.10742117  0.84674189  0.68919530    -0.70500
O548        O  0.18757934  0.93033966  0.66027152    -0.74100
Al549      Al  0.13432559  0.86974051  0.62798772     1.49000
C550        C  0.22919173  0.93944170  0.67821121     0.93200
O551        O  0.24498732  0.81941052  0.66098471    -0.80300
O552        O  0.17252161  0.74669586  0.59705459    -0.73900
Al553      Al  0.23232945  0.86369857  0.61786154     1.90100
O554        O  0.17071926  0.77032998  0.69250598    -0.74300
O555        O  0.08976055  0.75361567  0.58437653    -0.72800
O556        O  0.08180268  0.76428087  0.68101747    -0.78400
O557        O  0.07344960  0.81725275  0.59517597    -0.76600
O558        O  0.16611057  0.83289561  0.62761262    -1.12800
O559        O  0.15775846  0.89791488  0.56744821    -0.72000
C560        C  0.20273509  0.92370684  0.55453795     0.98800
C561        C  0.21718513  0.78567122  0.69128232     0.95200
Al562      Al  0.13168569  0.76476081  0.63775865     1.55600
O563        O  0.24650024  0.90933187  0.67015306    -0.76600
C564        C  0.06282391  0.77416249  0.57606442     0.99300
C565        C  0.20668780  0.77199229  0.56674927     0.94200
O566        O  0.22538121  0.82065180  0.56378784    -0.81900
C567        C  0.01113088  0.55518419  0.75705709     0.03600
C568        C  0.05630459  0.55390120  0.75441985    -0.12600
C569        C  0.05625512  0.00645721  0.75149357     0.01100
C570        C  0.50982339  0.95998686  0.75025018    -0.11100
C571        C  0.46435406  0.96091645  0.75307532     0.03600
C572        C  0.46539330  0.00856686  0.75660565    -0.10500
H573        H  0.09161051  0.59002458  0.75427690     0.09200
H574        H  0.50888415  0.92320449  0.74643333     0.06700
H575        H  0.43043263  0.00939877  0.75837116     0.06500
N576        N  0.24843956  0.01660381  0.73374172    -0.03000
C577        C  0.29181878  0.55345976  0.75466135    -0.00400
C578        C  0.33183512  0.54827170  0.73859970    -0.23300
C579        C  0.31289484  0.00674712  0.70811265    -0.23500
C580        C  0.26166752  0.98739476  0.70581354    -0.00500
H581        H  0.37050832  0.57024041  0.75050865     0.13200
H582        H  0.33418505  0.99120769  0.69065219     0.13300
N583        N  0.00776200  0.74665172  0.76060217    -0.03000
C584        C  0.47836192  0.75844282  0.78848573    -0.00400
C585        C  0.49174880  0.81002469  0.78213785    -0.23300
C586        C  0.03050057  0.83063739  0.75035815    -0.23500
C587        C  0.04018905  0.79148515  0.73777901    -0.00500
H588        H  0.47504493  0.83079775  0.79895866     0.13200
H589        H  0.04931640  0.87006559  0.73717032     0.13300
N590        N  0.27563521  0.77140716  0.74859452    -0.03000
C591        C  0.26972054  0.72754455  0.77032560    -0.00400
C592        C  0.22642823  0.68474714  0.75367560    -0.23300
C593        C  0.20431025  0.70216650  0.72188511    -0.23500
C594        C  0.23463414  0.75516240  0.71920147    -0.00500
H595        H  0.21070161  0.64506251  0.76583601     0.13200
H596        H  0.16874361  0.67873673  0.70373469     0.13300
C597        C  0.03232842  0.68722682  0.79667537    -0.08700
C598        C  0.00833520  0.69866870  0.75955480     0.07500
C599        C  0.48587932  0.66345424  0.72146323    -0.02500
C600        C  0.48698511  0.61683808  0.72126569    -0.06900
C601        C  0.01123559  0.60520326  0.75832549     0.06600
C602        C  0.03430461  0.64110746  0.79612470    -0.02000
Br603      Br  0.06740722  0.62842512  0.84858825    -0.01700
H604        H  0.04972180  0.71450615  0.82598632     0.10500
H605        H  0.46928272  0.58976345  0.69192349     0.08500
Br606      Br  0.45363789  0.67810410  0.66932473    -0.02100
C607        C  0.13934723  0.53829394  0.71185782    -0.08700
C608        C  0.10490498  0.00652565  0.74696814     0.07500
C609        C  0.11871716  0.97751272  0.77782181    -0.02500
C610        C  0.16572247  0.98044296  0.77275995    -0.06900
C611        C  0.19968166  0.01229842  0.73766819     0.06600
C612        C  0.18623435  0.54138529  0.70724365    -0.02000
Br613      Br  0.23158005  0.58638681  0.65928415    -0.01700
H614        H  0.12981756  0.56106087  0.68793478     0.10500
H615        H  0.17628878  0.95862409  0.79680219     0.08500
Br616      Br  0.07680792  0.93633631  0.82966993    -0.02100
C617        C  0.38485943  0.89622715  0.79257407    -0.08700
C618        C  0.41528224  0.91240454  0.75139197     0.07500
C619        C  0.39721546  0.88353204  0.70854727    -0.02500
C620        C  0.35031183  0.83835910  0.70789376    -0.06900
C621        C  0.32052460  0.82129121  0.74935316     0.06600
C622        C  0.33782536  0.85102093  0.79183174    -0.02000
Br623      Br  0.29782503  0.83226805  0.84897772    -0.01700
H624        H  0.39782591  0.91880405  0.82542634     0.10500
H625        H  0.33734880  0.81568106  0.67514513     0.08500
Br626      Br  0.43461479  0.90510096  0.64975533    -0.02100
C627        C  0.16584529  0.63293362  0.96903860    -0.08700
C628        C  0.17384036  0.68184594  0.98330123     0.07500
C629        C  0.13182282  0.68960516  0.48194166    -0.02500
C630        C  0.08339848  0.64597551  0.97801618    -0.06900
C631        C  0.07764809  0.59698623  0.96573883     0.06600
C632        C  0.12029612  0.59564199  0.95118467    -0.02000
Br633      Br  0.11780221  0.54647116  0.90469379    -0.01700
H634        H  0.19322882  0.62135162  0.97499534     0.10500
H635        H  0.05114467  0.65077826  0.48422725     0.08500
Br636      Br  0.13801038  0.75687325  0.47825365    -0.02100
C637        C  0.03710410  0.90127925  0.49827595    -0.08700
C638        C  0.49304903  0.90465782  0.00599204     0.07500
C639        C  0.44785353  0.85692270  0.01115980    -0.02500
C640        C  0.44951434  0.81185259  0.02201814    -0.06900
C641        C  0.49322364  0.80898361  0.01577205     0.06600
C642        C  0.03656467  0.85360879  0.50047370    -0.02000
Br643      Br  0.09190703  0.84932210  0.47393697    -0.01700
H644        H  0.07134459  0.93425270  0.48660201     0.10500
H645        H  0.41531900  0.77670587  0.02972863     0.08500
Br646      Br  0.38456260  0.84555247  0.98583090    -0.02100
C647        C  0.36630600  0.97824402  0.95936975    -0.08700
C648        C  0.39577404  0.49639453  0.00110003     0.07500
C649        C  0.37797624  0.50998839  0.54183187    -0.02500
C650        C  0.33153952  0.50766595  0.53957682    -0.06900
C651        C  0.30263882  0.49088517  0.99738683     0.06600
C652        C  0.31954776  0.97506875  0.95742402    -0.02000
Br653      Br  0.27974148  0.94875254  0.90008027    -0.01700
H654        H  0.37990648  0.96686109  0.92829355     0.10500
H655        H  0.31815686  0.51975994  0.57029549     0.08500
Br656      Br  0.41629102  0.53261305  0.60030748    -0.02100
O657        O  0.77390735  0.10858537  0.30650451    -0.81400
C658        C  0.92304808  0.20976132  0.45278526     0.98000
O659        O  0.91795974  0.17499708  0.42371187    -0.70500
O660        O  0.83082558  0.08922428  0.42989714    -0.74100
Al661      Al  0.87109348  0.13438441  0.37667036     1.49000
C662        C  0.78325239  0.06405787  0.42972677     0.93200
O663        O  0.76327524  0.15540396  0.43312946    -0.80300
O664        O  0.84036318  0.24662337  0.32427926    -0.73900
Al665      Al  0.77086650  0.13389317  0.37029209     1.90100
O666        O  0.81631826  0.23811565  0.42379230    -0.72900
O667        O  0.92492757  0.25071023  0.35009614    -0.72800
O668        O  0.90065240  0.23557523  0.44530557    -0.78400
O669        O  0.91603796  0.17653043  0.32489849    -0.76600
O670        O  0.83732598  0.16881123  0.37707586    -1.12800
O671        O  0.83032370  0.08668085  0.32838296    -0.72000
C672        C  0.79779805  0.08435100  0.29863217     0.98800
C673        C  0.78091238  0.20194464  0.44694406     0.95200
Al674      Al  0.86818592  0.23741975  0.38516675     1.55600
O675        O  0.75973961  0.07114135  0.39646532    -0.76600
C676        C  0.93806928  0.22570732  0.32293579     0.99300
C677        C  0.79386736  0.22211696  0.31455850     0.94200
O678        O  0.76444792  0.18771623  0.34271992    -0.81900
C679        C  0.99312916  0.45584212  0.50347534     0.03600
C680        C  0.53525496  0.50238887  0.48893701    -0.12600
C681        C  0.53171147  0.04712589  0.47695051     0.01100
C682        C  0.48509996  0.04439468  0.48010252    -0.11100
C683        C  0.94515432  0.00097486  0.50069800     0.03600
C684        C  0.95065321  0.45935470  0.51617919    -0.10500
H685        H  0.57139740  0.50486284  0.48899008     0.09200
H686        H  0.47986833  0.07617849  0.46808923     0.06700
H687        H  0.92058575  0.42928552  0.53667175     0.06500
N688        N  0.75784604  0.99386289  0.49442941    -0.03000
C689        C  0.71501863  0.46598786  0.01990304    -0.00400
C690        C  0.68196648  0.48378707  0.01047853    -0.23300
C691        C  0.70460858  0.02261567  0.47757987    -0.23500
C692        C  0.75120280  0.02838361  0.46801481    -0.00500
H693        H  0.64576087  0.47074755  0.02676480     0.13200
H694        H  0.68888335  0.04459809  0.46223384     0.13300
N695        N  0.72309689  0.21937038  0.50158099    -0.03000
C696        C  0.73368974  0.24793671  0.04325694    -0.00400
C697        C  0.78003645  0.25922855  0.06104183    -0.23300
C698        C  0.79921901  0.23782670  0.53007809    -0.23500
C699        C  0.76534620  0.21565614  0.49310298    -0.00500
H700        H  0.79851990  0.28187385  0.09280563     0.13200
H701        H  0.83510031  0.23985875  0.53307120     0.13300
N702        N  0.98994174  0.25878247  0.01820459    -0.03000
C703        C  0.51701366  0.24325619  0.04633604    -0.00400
C704        C  0.49733154  0.19025413  0.04254260    -0.23300
C705        C  0.95786705  0.17240846  0.51131180    -0.23500
C706        C  0.95398382  0.21475867  0.49616172    -0.00500
H707        H  0.51099071  0.16689082  0.05999291     0.13200
H708        H  0.93589967  0.13277562  0.49880585     0.13300
O709        O  0.73587302  0.41568732  0.07337993    -0.81400
C710        C  0.57901240  0.30062058  0.20167838     0.98000
O711        O  0.60742031  0.34674201  0.18919580    -0.70500
O712        O  0.68757908  0.43033995  0.16027421    -0.74100
Al713      Al  0.63432638  0.36974155  0.12798905     1.49000
C714        C  0.72919192  0.43944281  0.17821344     0.93200
O715        O  0.74498845  0.31941170  0.16098588    -0.80300
O716        O  0.67252433  0.24669795  0.09705637    -0.73900
Al717      Al  0.73233071  0.36370032  0.11786338     1.90100
O718        O  0.67072047  0.27033282  0.19250803    -0.74300
O719        O  0.58976354  0.25361675  0.08437769    -0.72800
O720        O  0.58180288  0.26428141  0.18101800    -0.78400
O721        O  0.57345167  0.31725349  0.09517551    -0.76600
O722        O  0.66611181  0.33289720  0.12761421    -1.12800
O723        O  0.65776093  0.39791786  0.06745069    -0.72000
C724        C  0.70273784  0.42370986  0.05454131     0.98800
C725        C  0.71718609  0.28567300  0.19128382     0.95200
Al726      Al  0.63168745  0.26476239  0.13776021     1.55600
O727        O  0.74650121  0.40933352  0.17015526    -0.76600
C728        C  0.56282699  0.27416329  0.07606423     0.99300
C729        C  0.70668913  0.27199479  0.06674980     0.94200
O730        O  0.72538179  0.32065424  0.06378884    -0.81900
C731        C  0.51112828  0.05518564  0.25705455     0.03600
C732        C  0.55630287  0.05390404  0.25442025    -0.12600
C733        C  0.55625493  0.50646007  0.25149564     0.01100
C734        C  0.00982373  0.45998913  0.25025190    -0.11100
C735        C  0.96435363  0.46091752  0.25307400     0.03600
C736        C  0.96539129  0.50856736  0.25660170    -0.10500
H737        H  0.59160818  0.09002801  0.25427842     0.09200
H738        H  0.00888537  0.42320694  0.24643647     0.06700
H739        H  0.93042974  0.50939828  0.25836525     0.06500
N740        N  0.74843940  0.51660616  0.23374223    -0.03000
C741        C  0.79181881  0.05346415  0.25465973    -0.00400
C742        C  0.83183537  0.04827706  0.23859722    -0.23300
C743        C  0.81289511  0.50675090  0.20811187    -0.23500
C744        C  0.76166745  0.48739672  0.20581469    -0.00500
H745        H  0.87050878  0.07024731  0.25050474     0.13200
H746        H  0.83418549  0.49121183  0.19065131     0.13300
N747        N  0.50775884  0.24665239  0.26060079    -0.03000
C748        C  0.97835820  0.25844376  0.28848343    -0.00400
C749        C  0.99174320  0.31002471  0.28213270    -0.23300
C750        C  0.53049494  0.33063678  0.25035277    -0.23500
C751        C  0.54018511  0.29148501  0.23777612    -0.00500
H752        H  0.97503867  0.33079777  0.29895234     0.13200
H753        H  0.54931004  0.37006436  0.23716399     0.13300
N754        N  0.77563565  0.27140780  0.24859496    -0.03000
C755        C  0.76971974  0.22754544  0.27032723    -0.00400
C756        C  0.72642639  0.18474843  0.25367854    -0.23300
C757        C  0.70430893  0.20216797  0.22188766    -0.23500
C758        C  0.73463430  0.25516354  0.21920257    -0.00500
H759        H  0.71069875  0.14506412  0.26584024     0.13200
H760        H  0.66874167  0.17873871  0.20373812     0.13300
C761        C  0.53231865  0.18722391  0.29667732    -0.08700
C762        C  0.50833126  0.19866903  0.25955355     0.07500
C763        C  0.98588084  0.16345779  0.22145863    -0.02500
C764        C  0.98698690  0.11684177  0.22126055    -0.06900
C765        C  0.51123191  0.10520405  0.25832333     0.06600
C766        C  0.53429473  0.14110459  0.29612620    -0.02000
Br767      Br  0.56738927  0.12841715  0.34859363    -0.01700
H768        H  0.54970736  0.21450033  0.32599094     0.10500
H769        H  0.96928922  0.08976991  0.19191607     0.08500
Br770      Br  0.95364632  0.17811183  0.16931652    -0.02100
C771        C  0.63934877  0.03830042  0.21186225    -0.08700
C772        C  0.60490559  0.50652972  0.24697114     0.07500
C773        C  0.61871685  0.47751440  0.27782278    -0.02500
C774        C  0.66572169  0.48044372  0.27275978    -0.06900
C775        C  0.69968150  0.51230086  0.23766919     0.06600
C776        C  0.68623557  0.04139109  0.20724744    -0.02000
Br777      Br  0.73158307  0.08639639  0.15929098    -0.01700
H778        H  0.62982005  0.06106939  0.18794053     0.10500
H779        H  0.67628727  0.45862306  0.29680044     0.08500
Br780      Br  0.57680731  0.43633581  0.32966979    -0.02100
C781        C  0.88485840  0.39622968  0.29257225    -0.08700
C782        C  0.91528268  0.41240482  0.25139111     0.07500
C783        C  0.89721839  0.38352888  0.20854790    -0.02500
C784        C  0.85031461  0.33835610  0.20789457    -0.06900
C785        C  0.82052563  0.32129116  0.24935298     0.06600
C786        C  0.83782483  0.35102305  0.29183038    -0.02000
Br787      Br  0.79782358  0.33227161  0.34897562    -0.01700
H788        H  0.89782347  0.41880844  0.32542345     0.10500
H789        H  0.83735274  0.31567568  0.17514699     0.08500
Br790      Br  0.93462149  0.40509265  0.14975773    -0.02100
C791        C  0.66584330  0.13293332  0.46903542    -0.08700
C792        C  0.67383945  0.18184569  0.48329990     0.07500
C793        C  0.63182307  0.18960471  0.98194121    -0.02500
C794        C  0.58339762  0.14597644  0.47801810    -0.06900
C795        C  0.57764637  0.09698715  0.46573922     0.06600
C796        C  0.62029339  0.09564252  0.45118247    -0.02000
Br797      Br  0.61779672  0.04647215  0.40468965    -0.01700
H798        H  0.69322577  0.12134957  0.47499033     0.10500
H799        H  0.55114445  0.15077689  0.98422343     0.08500
Br800      Br  0.63801021  0.25687248  0.97825257    -0.02100
C801        C  0.53711053  0.40128156  0.99828490    -0.08700
C802        C  0.99304440  0.40465729  0.50598984     0.07500
C803        C  0.94784937  0.35692287  0.51116455    -0.02500
C804        C  0.94951121  0.31185319  0.52202288    -0.06900
C805        C  0.99321969  0.30898340  0.51577255     0.06600
C806        C  0.53657094  0.35361106  0.00048011    -0.02000
Br807      Br  0.59191650  0.34932799  0.97394697    -0.01700
H808        H  0.57135335  0.43425691  0.98661736     0.10500
H809        H  0.91531716  0.27670774  0.52973729     0.08500
Br810      Br  0.88455413  0.34555056  0.48584590    -0.02100
C811        C  0.86630410  0.47824283  0.45937218    -0.08700
C812        C  0.89577299  0.99639770  0.50110147     0.07500
C813        C  0.87797663  0.00998162  0.04183219    -0.02500
C814        C  0.83154045  0.00766035  0.03957819    -0.06900
C815        C  0.80263697  0.99088600  0.49738613     0.06600
C816        C  0.81954526  0.47506588  0.45742567    -0.02000
Br817      Br  0.77973650  0.44874155  0.40008435    -0.01700
H818        H  0.87990392  0.46685706  0.42829783     0.10500
H819        H  0.81815788  0.01975233  0.07029823     0.08500
Br820      Br  0.91629081  0.03260191  0.10030847    -0.02100
O821        O  0.77390708  0.10858146  0.80650562    -0.81400
C822        C  0.92305111  0.20976117  0.95278362     0.98000
O823        O  0.91796217  0.17499682  0.92371019    -0.70500
O824        O  0.83082827  0.08922503  0.92989802    -0.74100
Al825      Al  0.87109475  0.13438323  0.87667019     1.49000
C826        C  0.78325511  0.06405930  0.92972949     0.93200
O827        O  0.76327544  0.15540493  0.93312907    -0.80300
O828        O  0.84036389  0.24662168  0.82427801    -0.73900
Al829      Al  0.77086707  0.13389180  0.87029240     1.90100
O830        O  0.81632004  0.23811581  0.92379085    -0.72900
O831        O  0.92492814  0.25070791  0.85009546    -0.72800
O832        O  0.90065439  0.23557429  0.94530466    -0.78400
O833        O  0.91603888  0.17652834  0.82489764    -0.76600
O834        O  0.83732682  0.16880993  0.87707555    -1.12800
O835        O  0.83032417  0.08667820  0.82838417    -0.72000
C836        C  0.79779794  0.08434724  0.79863356     0.98800
C837        C  0.78091338  0.20194601  0.94694283     0.95200
Al838      Al  0.86818702  0.23741841  0.88516571     1.55600
O839        O  0.75974096  0.07114133  0.89646840    -0.76600
C840        C  0.93807083  0.22570532  0.82293586     0.99300
C841        C  0.79386808  0.22211524  0.81455684     0.94200
O842        O  0.76444842  0.18771374  0.84271758    -0.81900
C843        C  0.99313239  0.45584163  0.00347705     0.03600
C844        C  0.53525792  0.50238868  0.98893898    -0.12600
C845        C  0.53171334  0.04712477  0.97695049     0.01100
C846        C  0.48510105  0.04439215  0.98010085    -0.11100
C847        C  0.94515543  0.00097189  0.00069585     0.03600
C848        C  0.95065495  0.45935229  0.01617861    -0.10500
H849        H  0.57140055  0.50486355  0.98899299     0.09200
H850        H  0.47986892  0.07617562  0.96808704     0.06700
H851        H  0.92058638  0.42928105  0.03666947     0.06500
N852        N  0.75784904  0.99386452  0.99443189    -0.03000
C853        C  0.71501459  0.46598313  0.51989779    -0.00400
C854        C  0.68195985  0.48377811  0.51046913    -0.23300
C855        C  0.70461559  0.02262389  0.97758850    -0.23500
C856        C  0.75120738  0.02838763  0.96801967    -0.00500
H857        H  0.64575274  0.47073551  0.52675231     0.13200
H858        H  0.68889174  0.04460750  0.96224416     0.13300
N859        N  0.72309785  0.21937206  0.00158105    -0.03000
C860        C  0.73368760  0.24793274  0.54325804    -0.00400
C861        C  0.78003211  0.25922018  0.56104570    -0.23300
C862        C  0.79922318  0.23783503  0.03007421    -0.23500
C863        C  0.76534823  0.21565990  0.99310145    -0.00500
H864        H  0.79851436  0.28186310  0.59281098     0.13200
H865        H  0.83510613  0.23986946  0.03306608     0.13300
N866        N  0.98993763  0.25878220  0.51820606    -0.03000
C867        C  0.51700903  0.24325559  0.54633836    -0.00400
C868        C  0.49732508  0.19025312  0.54254687    -0.23300
C869        C  0.95787404  0.17240932  0.01130725    -0.23500
C870        C  0.95398885  0.21475904  0.99615898    -0.00500
H871        H  0.51098351  0.16688950  0.55999799     0.13200
H872        H  0.93590762  0.13277655  0.99880025     0.13300
O873        O  0.73587101  0.41568522  0.57337695    -0.81400
C874        C  0.57901388  0.30062034  0.70167882     0.98000
O875        O  0.60742104  0.34674172  0.68919530    -0.70500
O876        O  0.68757925  0.43033958  0.66027156    -0.74100
Al877      Al  0.63432555  0.36974048  0.62798776     1.49000
C878        C  0.72919167  0.43944167  0.67821124     0.93200
O879        O  0.74498735  0.31941048  0.66098473    -0.80300
O880        O  0.67252158  0.24669588  0.59705466    -0.73900
Al881      Al  0.73232945  0.36369858  0.61786157     1.90100
O882        O  0.67071925  0.27033000  0.69250597    -0.74300
O883        O  0.58976066  0.25361577  0.58437661    -0.72800
O884        O  0.58180272  0.26428076  0.68101742    -0.78400
O885        O  0.57344966  0.31725283  0.59517602    -0.76600
O886        O  0.66611056  0.33289561  0.62761266    -1.12800
O887        O  0.65775852  0.39791488  0.56744828    -0.72000
C888        C  0.70273515  0.42370677  0.55453800     0.98800
C889        C  0.71718512  0.28567110  0.69128224     0.95200
Al890      Al  0.63168571  0.26476082  0.63775867     1.55600
O891        O  0.74650027  0.40933193  0.67015305    -0.76600
C892        C  0.56282404  0.27416263  0.57606445     0.99300
C893        C  0.70668777  0.27199234  0.56674936     0.94200
O894        O  0.72538112  0.32065185  0.56378786    -0.81900
C895        C  0.51113090  0.05518431  0.75705722     0.03600
C896        C  0.55630461  0.05390136  0.75441987    -0.12600
C897        C  0.55625490  0.50645700  0.75149360     0.01100
C898        C  0.00982335  0.45998666  0.75025020    -0.11100
C899        C  0.96435402  0.46091629  0.75307538     0.03600
C900        C  0.96539326  0.50856672  0.75660562    -0.10500
H901        H  0.59161047  0.09002471  0.75427690     0.09200
H902        H  0.00888418  0.42320423  0.74643333     0.06700
H903        H  0.93043261  0.50939862  0.75837114     0.06500
N904        N  0.74843945  0.51660374  0.73374176    -0.03000
C905        C  0.79181884  0.05345989  0.75466135    -0.00400
C906        C  0.83183515  0.04827175  0.73859970    -0.23300
C907        C  0.81289476  0.50674723  0.70811254    -0.23500
C908        C  0.76166743  0.48739478  0.70581351    -0.00500
H909        H  0.87050847  0.07024047  0.75050872     0.13200
H910        H  0.83418493  0.49120788  0.69065216     0.13300
N911        N  0.50776190  0.24665159  0.76060214    -0.03000
C912        C  0.97836177  0.25844282  0.78848579    -0.00400
C913        C  0.99174861  0.31002463  0.78213786    -0.23300
C914        C  0.53050045  0.33063715  0.75035812    -0.23500
C915        C  0.54018894  0.29148495  0.73777897    -0.00500
H916        H  0.97504469  0.33079780  0.79895874     0.13200
H917        H  0.54931618  0.37006510  0.73717046     0.13300
N918        N  0.77563528  0.27140705  0.74859438    -0.03000
C919        C  0.76972047  0.22754449  0.77032564    -0.00400
C920        C  0.72642804  0.18474709  0.75367570    -0.23300
C921        C  0.70431011  0.20216641  0.72188509    -0.23500
C922        C  0.73463414  0.25516227  0.71920134    -0.00500
H923        H  0.71070135  0.14506242  0.76583611     0.13200
H924        H  0.66874324  0.17873662  0.70373470     0.13300
C925        C  0.53232840  0.18722685  0.79667552    -0.08700
C926        C  0.50833512  0.19866861  0.75955490     0.07500
C927        C  0.98587922  0.16345421  0.72146339    -0.02500
C928        C  0.98698512  0.11683811  0.72126585    -0.06900
C929        C  0.51123558  0.10520333  0.75832563     0.06600
C930        C  0.53430468  0.14110756  0.79612479    -0.02000
Br931      Br  0.56740744  0.12842533  0.84858830    -0.01700
H932        H  0.54972189  0.21450621  0.82598638     0.10500
H933        H  0.96928285  0.08976351  0.69192375     0.08500
Br934      Br  0.95363769  0.17810392  0.66932488    -0.02100
C935        C  0.63934729  0.03829416  0.71185779    -0.08700
C936        C  0.60490482  0.50652545  0.74696814     0.07500
C937        C  0.61871705  0.47751259  0.77782187    -0.02500
C938        C  0.66572241  0.48044293  0.77276012    -0.06900
C939        C  0.69968155  0.51229837  0.73766829     0.06600
C940        C  0.68623440  0.04138544  0.70724356    -0.02000
Br941      Br  0.73158006  0.08638679  0.65928394    -0.01700
H942        H  0.62981753  0.06106119  0.68793453     0.10500
H943        H  0.67628870  0.45862402  0.79680234     0.08500
Br944      Br  0.57680785  0.43633628  0.82967002    -0.02100
C945        C  0.88485941  0.39622701  0.79257408    -0.08700
C946        C  0.91528218  0.41240447  0.75139195     0.07500
C947        C  0.89721549  0.38353198  0.70854725    -0.02500
C948        C  0.85031189  0.33835903  0.70789371    -0.06900
C949        C  0.82052463  0.32129113  0.74935309     0.06600
C950        C  0.83782535  0.35102082  0.79183170    -0.02000
Br951      Br  0.79782507  0.33226782  0.84897772    -0.01700
H952        H  0.89782588  0.41880387  0.82542636     0.10500
H953        H  0.83734883  0.31568102  0.67514508     0.08500
Br954      Br  0.93461494  0.40510102  0.64975538    -0.02100
C955        C  0.66584515  0.13293367  0.96903857    -0.08700
C956        C  0.67384027  0.18184595  0.98330136     0.07500
C957        C  0.63182263  0.18960519  0.48194175    -0.02500
C958        C  0.58339838  0.14597551  0.97801623    -0.06900
C959        C  0.57764803  0.09698625  0.96573887     0.06600
C960        C  0.62029602  0.09564202  0.95118464    -0.02000
Br961      Br  0.61780201  0.04647106  0.90469386    -0.01700
H962        H  0.69322870  0.12135165  0.97499523     0.10500
H963        H  0.55114416  0.15077829  0.48422731     0.08500
Br964      Br  0.63801047  0.25687341  0.47825361    -0.02100
C965        C  0.53710420  0.40127942  0.49827592    -0.08700
C966        C  0.99304897  0.40465777  0.00599209     0.07500
C967        C  0.94785346  0.35692262  0.01115979    -0.02500
C968        C  0.94951429  0.31185248  0.02201810    -0.06900
C969        C  0.99322364  0.30898354  0.01577215     0.06600
C970        C  0.53656474  0.35360893  0.50047369    -0.02000
Br971      Br  0.59190703  0.34932220  0.47393694    -0.01700
H972        H  0.57134490  0.43425313  0.48660188     0.10500
H973        H  0.91531877  0.27670556  0.02972857     0.08500
Br974      Br  0.88456260  0.34555255  0.98583092    -0.02100
C975        C  0.86630593  0.47824405  0.95936984    -0.08700
C976        C  0.89577402  0.99639453  0.00110004     0.07500
C977        C  0.87797611  0.00998822  0.54183179    -0.02500
C978        C  0.83153937  0.00766573  0.53957667    -0.06900
C979        C  0.80263889  0.99088526  0.99738687     0.06600
C980        C  0.81954768  0.47506871  0.95742409    -0.02000
Br981      Br  0.77974156  0.44875260  0.90008027    -0.01700
H982        H  0.87990638  0.46686111  0.92829382     0.10500
H983        H  0.81815674  0.01975967  0.57029521     0.08500
Br984      Br  0.91629081  0.03261275  0.60030744    -0.02100
O985        O  0.77390735  0.60858526  0.30650452    -0.81400
C986        C  0.92304802  0.70976121  0.45278521     0.98000
O987        O  0.91795982  0.67499711  0.42371169    -0.70500
O988        O  0.83082580  0.58922435  0.42989710    -0.74100
Al989      Al  0.87109355  0.63438441  0.37667027     1.49000
C990        C  0.78325259  0.56405787  0.42972678     0.93200
O991        O  0.76327536  0.65540389  0.43312943    -0.80300
O992        O  0.84036316  0.74662331  0.32427920    -0.73900
Al993      Al  0.77086650  0.63389307  0.37029209     1.90100
O994        O  0.81631832  0.73811562  0.42379221    -0.72900
O995        O  0.92492763  0.75071023  0.35009606    -0.72800
O996        O  0.90065245  0.73557520  0.44530551    -0.78400
O997        O  0.91603803  0.67653044  0.32489839    -0.76600
O998        O  0.83732598  0.66881118  0.37707581    -1.12800
O999        O  0.83032374  0.58668077  0.32838295    -0.72000
C1000       C  0.79779817  0.58435101  0.29863211     0.98800
C1001       C  0.78091247  0.70194456  0.44694400     0.95200
Al1002     Al  0.86818595  0.73741972  0.38516669     1.55600
O1003       O  0.75973974  0.57114131  0.39646537    -0.76600
C1004       C  0.93806936  0.72570734  0.32293569     0.99300
C1005       C  0.79386733  0.72211690  0.31455848     0.94200
O1006       O  0.76444792  0.68771615  0.34271991    -0.81900
C1007       C  0.99312906  0.95584198  0.50347564     0.03600
C1008       C  0.53525497  0.00238867  0.48893716    -0.12600
C1009       C  0.53171138  0.54712606  0.47695033     0.01100
C1010       C  0.48509988  0.54439492  0.48010247    -0.11100
C1011       C  0.94515452  0.50097512  0.50069778     0.03600
C1012       C  0.95065308  0.95935451  0.51617956    -0.10500
H1013       H  0.57139724  0.00486254  0.48899006     0.09200
H1014       H  0.47986823  0.57617906  0.46808906     0.06700
H1015       H  0.92058543  0.92928500  0.53667240     0.06500
N1016       N  0.75784622  0.49386287  0.49442948    -0.03000
C1017       C  0.71501872  0.96598801  0.01990298    -0.00400
C1018       C  0.68196660  0.98378716  0.01047830    -0.23300
C1019       C  0.70460887  0.52261560  0.47757990    -0.23500
C1020       C  0.75120306  0.52838360  0.46801491    -0.00500
H1021       H  0.64576118  0.97074765  0.02676441     0.13200
H1022       H  0.68888387  0.54459772  0.46223415     0.13300
N1023       N  0.72309697  0.71937037  0.50158089    -0.03000
C1024       C  0.73368979  0.74793670  0.04325684    -0.00400
C1025       C  0.78003642  0.75922838  0.06104178    -0.23300
C1026       C  0.79921903  0.73782657  0.53007801    -0.23500
C1027       C  0.76534624  0.71565601  0.49310291    -0.00500
H1028       H  0.79851982  0.78187367  0.09280544     0.13200
H1029       H  0.83510058  0.73985854  0.53307113     0.13300
N1030       N  0.98994180  0.75878260  0.01820441    -0.03000
C1031       C  0.51701379  0.74325626  0.04633595    -0.00400
C1032       C  0.49733172  0.69025419  0.04254253    -0.23300
C1033       C  0.95786688  0.67240830  0.51131176    -0.23500
C1034       C  0.95398372  0.71475853  0.49616168    -0.00500
H1035       H  0.51099092  0.66689084  0.05999279     0.13200
H1036       H  0.93589937  0.63277532  0.49880559     0.13300
O1037       O  0.73587301  0.91568742  0.07337988    -0.81400
C1038       C  0.57901247  0.80062072  0.20167837     0.98000
O1039       O  0.60742042  0.84674219  0.18919581    -0.70500
O1040       O  0.68757911  0.93034005  0.16027417    -0.74100
Al1041     Al  0.63432642  0.86974168  0.12798904     1.49000
C1042       C  0.72919188  0.93944284  0.17821349     0.93200
O1043       O  0.74498840  0.81941173  0.16098586    -0.80300
O1044       O  0.67252437  0.74669797  0.09705639    -0.73900
Al1045     Al  0.73233069  0.86370037  0.11786337     1.90100
O1046       O  0.67072048  0.77033290  0.19250807    -0.74300
O1047       O  0.58976364  0.75361689  0.08437766    -0.72800
O1048       O  0.58180291  0.76428155  0.18101796    -0.78400
O1049       O  0.57345169  0.81725358  0.09517552    -0.76600
O1050       O  0.66611183  0.83289730  0.12761420    -1.12800
O1051       O  0.65776094  0.89791799  0.06745067    -0.72000
C1052       C  0.70273783  0.92370995  0.05454124     0.98800
C1053       C  0.71718607  0.78567302  0.19128380     0.95200
Al1054     Al  0.63168749  0.76476249  0.13776022     1.55600
O1055       O  0.74650117  0.90933356  0.17015529    -0.76600
C1056       C  0.56282704  0.77416339  0.07606423     0.99300
C1057       C  0.70668916  0.77199477  0.06674979     0.94200
O1058       O  0.72538179  0.82065421  0.06378883    -0.81900
C1059       C  0.51112829  0.55518530  0.25705431     0.03600
C1060       C  0.55630287  0.55390365  0.25442016    -0.12600
C1061       C  0.55625486  0.00646045  0.25149562     0.01100
C1062       C  0.00982397  0.95998947  0.25025188    -0.11100
C1063       C  0.96435384  0.96091771  0.25307400     0.03600
C1064       C  0.96539155  0.00856757  0.25660177    -0.10500
H1065       H  0.59160804  0.59002741  0.25427836     0.09200
H1066       H  0.00888580  0.92320762  0.24643640     0.06700
H1067       H  0.93043028  0.00939849  0.25836541     0.06500
N1068       N  0.74843925  0.01660611  0.23374237    -0.03000
C1069       C  0.79181896  0.55346416  0.25465965    -0.00400
C1070       C  0.83183550  0.54827698  0.23859720    -0.23300
C1071       C  0.81289498  0.00675100  0.20811190    -0.23500
C1072       C  0.76166733  0.98739673  0.20581480    -0.00500
H1073       H  0.87050896  0.57024717  0.25050482     0.13200
H1074       H  0.83418529  0.99121200  0.19065131     0.13300
N1075       N  0.50775873  0.74665237  0.26060058    -0.03000
C1076       C  0.97835829  0.75844380  0.28848333    -0.00400
C1077       C  0.99174332  0.81002479  0.28213268    -0.23300
C1078       C  0.53049503  0.83063691  0.25035279    -0.23500
C1079       C  0.54018516  0.79148511  0.23777610    -0.00500
H1080       H  0.97503876  0.83079781  0.29895235     0.13200
H1081       H  0.54931028  0.87006467  0.23716391     0.13300
N1082       N  0.77563562  0.77140781  0.24859492    -0.03000
C1083       C  0.76971962  0.72754543  0.27032727    -0.00400
C1084       C  0.72642625  0.68474839  0.25367856    -0.23300
C1085       C  0.70430886  0.70216794  0.22188761    -0.23500
C1086       C  0.73463424  0.75516354  0.21920257    -0.00500
H1087       H  0.71069855  0.64506408  0.26584021     0.13200
H1088       H  0.66874155  0.67873862  0.20373810     0.13300
C1089       C  0.53231830  0.68722355  0.29667703    -0.08700
C1090       C  0.50833114  0.69866895  0.25955325     0.07500
C1091       C  0.98588091  0.66345784  0.22145823    -0.02500
C1092       C  0.98698690  0.61684170  0.22126007    -0.06900
C1093       C  0.51123181  0.60520373  0.25832298     0.06600
C1094       C  0.53429452  0.64110428  0.29612588    -0.02000
Br1095     Br  0.56738912  0.62841706  0.34859333    -0.01700
H1096       H  0.54970701  0.71449997  0.32599071     0.10500
H1097       H  0.96928907  0.58976966  0.19191526     0.08500
Br1098     Br  0.95364650  0.67811202  0.16931611    -0.02100
C1099       C  0.63934881  0.53830025  0.21186231    -0.08700
C1100       C  0.60490550  0.00653000  0.24697115     0.07500
C1101       C  0.61871668  0.97751458  0.27782278    -0.02500
C1102       C  0.66572152  0.98044388  0.27275987    -0.06900
C1103       C  0.69968137  0.01230089  0.23766926     0.06600
C1104       C  0.68623568  0.54139115  0.20724751    -0.02000
Br1105     Br  0.73158317  0.58639659  0.15929106    -0.01700
H1106       H  0.62982011  0.56106918  0.18794081     0.10500
H1107       H  0.67628702  0.95862315  0.29680054     0.08500
Br1108     Br  0.57680713  0.93633607  0.32966982    -0.02100
C1109       C  0.88485855  0.89622960  0.29257221    -0.08700
C1110       C  0.91528283  0.91240482  0.25139108     0.07500
C1111       C  0.89721845  0.88352897  0.20854784    -0.02500
C1112       C  0.85031455  0.83835627  0.20789441    -0.06900
C1113       C  0.82052564  0.82129120  0.24935291     0.06600
C1114       C  0.83782493  0.85102301  0.29183034    -0.02000
Br1115     Br  0.79782367  0.83227155  0.34897562    -0.01700
H1116       H  0.89782361  0.91880829  0.32542330     0.10500
H1117       H  0.83735276  0.81567588  0.17514681     0.08500
Br1118     Br  0.93462158  0.90509282  0.14975771    -0.02100
C1119       C  0.66584324  0.63293327  0.46903531    -0.08700
C1120       C  0.67383951  0.68184569  0.48329981     0.07500
C1121       C  0.63182318  0.68960471  0.98194109    -0.02500
C1122       C  0.58339772  0.64597650  0.47801809    -0.06900
C1123       C  0.57764632  0.59698720  0.46573909     0.06600
C1124       C  0.62029329  0.59564248  0.45118239    -0.02000
Br1125     Br  0.61779679  0.54647203  0.40468974    -0.01700
H1126       H  0.69322553  0.62134951  0.47499015     0.10500
H1127       H  0.55114480  0.65077683  0.98422336     0.08500
Br1128     Br  0.63801042  0.75687257  0.97825256    -0.02100
C1129       C  0.53711045  0.90128152  0.99828456    -0.08700
C1130       C  0.99304437  0.90465718  0.50598994     0.07500
C1131       C  0.94784936  0.85692276  0.51116456    -0.02500
C1132       C  0.94951120  0.81185309  0.52202290    -0.06900
C1133       C  0.99321968  0.80898330  0.51577252     0.06600
C1134       C  0.53657094  0.85361104  0.00047998    -0.02000
Br1135     Br  0.59191652  0.84932792  0.97394692    -0.01700
H1136       H  0.57135341  0.93425709  0.98661702     0.10500
H1137       H  0.91531725  0.77670775  0.52973725     0.08500
Br1138     Br  0.88455419  0.84555056  0.48584578    -0.02100
C1139       C  0.86630395  0.97824266  0.45937225    -0.08700
C1140       C  0.89577323  0.49639801  0.50110133     0.07500
C1141       C  0.87797664  0.50998163  0.04183219    -0.02500
C1142       C  0.83154045  0.50766031  0.03957820    -0.06900
C1143       C  0.80263711  0.49088598  0.49738623     0.06600
C1144       C  0.81954516  0.97506584  0.45742561    -0.02000
Br1145     Br  0.77973650  0.94874145  0.40008430    -0.01700
H1146       H  0.87990390  0.96685693  0.42829781     0.10500
H1147       H  0.81815788  0.51975229  0.07029826     0.08500
Br1148     Br  0.91629080  0.53260181  0.10030847    -0.02100
O1149       O  0.77390702  0.60858141  0.80650566    -0.81400
C1150       C  0.92305110  0.70976127  0.95278354     0.98000
O1151       O  0.91796215  0.67499688  0.92371015    -0.70500
O1152       O  0.83082817  0.58922498  0.92989808    -0.74100
Al1153     Al  0.87109471  0.63438324  0.87667018     1.49000
C1154       C  0.78325500  0.56405923  0.92972957     0.93200
O1155       O  0.76327548  0.65540488  0.93312902    -0.80300
O1156       O  0.84036386  0.74662164  0.82427799    -0.73900
Al1157     Al  0.77086708  0.63389176  0.87029241     1.90100
O1158       O  0.81632003  0.73811575  0.92379080    -0.72900
O1159       O  0.92492817  0.75070792  0.85009540    -0.72800
O1160       O  0.90065433  0.73557432  0.94530459    -0.78400
O1161       O  0.91603894  0.67652838  0.82489758    -0.76600
O1162       O  0.83732681  0.66880992  0.87707553    -1.12800
O1163       O  0.83032409  0.58667818  0.82838418    -0.72000
C1164       C  0.79779785  0.58434717  0.79863360     0.98800
C1165       C  0.78091334  0.70194597  0.94694272     0.95200
Al1166     Al  0.86818699  0.73741838  0.88516566     1.55600
O1167       O  0.75974089  0.57114126  0.89646844    -0.76600
C1168       C  0.93807090  0.72570537  0.82293579     0.99300
C1169       C  0.79386806  0.72211524  0.81455684     0.94200
O1170       O  0.76444843  0.68771369  0.84271758    -0.81900
C1171       C  0.99313241  0.95584167  0.00347693     0.03600
C1172       C  0.53525800  0.00238877  0.98893919    -0.12600
C1173       C  0.53171333  0.54712475  0.97695042     0.01100
C1174       C  0.48510104  0.54439214  0.98010087    -0.11100
C1175       C  0.94515541  0.50097188  0.00069593     0.03600
C1176       C  0.95065492  0.95935228  0.01617848    -0.10500
H1177       H  0.57140091  0.00486370  0.98899331     0.09200
H1178       H  0.47986891  0.57617546  0.96808722     0.06700
H1179       H  0.92058642  0.92928114  0.03666922     0.06500
N1180       N  0.75784897  0.49386440  0.99443191    -0.03000
C1181       C  0.71501441  0.96598319  0.51989779    -0.00400
C1182       C  0.68195956  0.98377814  0.51046913    -0.23300
C1183       C  0.70461544  0.52262374  0.97758866    -0.23500
C1184       C  0.75120725  0.52838748  0.96801972    -0.00500
H1185       H  0.64575227  0.97073553  0.52675256     0.13200
H1186       H  0.68889155  0.54460741  0.96224434     0.13300
N1187       N  0.72309794  0.71937207  0.00158095    -0.03000
C1188       C  0.73368764  0.74793268  0.54325797    -0.00400
C1189       C  0.78003214  0.75922003  0.56104567    -0.23300
C1190       C  0.79922318  0.73783491  0.03007413    -0.23500
C1191       C  0.76534829  0.71565993  0.99310133    -0.00500
H1192       H  0.79851439  0.78186282  0.59281083     0.13200
H1193       H  0.83510598  0.73986930  0.03306599     0.13300
N1194       N  0.98993756  0.75878205  0.51820604    -0.03000
C1195       C  0.51700891  0.74325539  0.54633832    -0.00400
C1196       C  0.49732502  0.69025292  0.54254677    -0.23300
C1197       C  0.95787384  0.67240943  0.01130729    -0.23500
C1198       C  0.95398878  0.71475917  0.99615892    -0.00500
H1199       H  0.51098345  0.66688932  0.55999781     0.13200
H1200       H  0.93590731  0.63277656  0.99880034     0.13300
O1201       O  0.73587095  0.91568530  0.57337689    -0.81400
C1202       C  0.57901399  0.80062045  0.70167881     0.98000
O1203       O  0.60742120  0.84674187  0.68919528    -0.70500
O1204       O  0.68757937  0.93033966  0.66027153    -0.74100
Al1205     Al  0.63432560  0.86974050  0.62798773     1.49000
C1206       C  0.72919176  0.93944171  0.67821122     0.93200
O1207       O  0.74498739  0.81941053  0.66098469    -0.80300
O1208       O  0.67252165  0.74669588  0.59705464    -0.73900
Al1209     Al  0.73232947  0.86369859  0.61786153     1.90100
O1210       O  0.67071931  0.77033005  0.69250599    -0.74300
O1211       O  0.58976063  0.75361568  0.58437653    -0.72800
O1212       O  0.58180275  0.76428085  0.68101741    -0.78400
O1213       O  0.57344960  0.81725273  0.59517598    -0.76600
O1214       O  0.66611059  0.83289560  0.62761263    -1.12800
O1215       O  0.65775843  0.89791483  0.56744822    -0.72000
C1216       C  0.70273506  0.92370682  0.55453796     0.98800
C1217       C  0.71718518  0.78567125  0.69128231     0.95200
Al1218     Al  0.63168574  0.76476081  0.63775866     1.55600
O1219       O  0.74650026  0.90933187  0.67015306    -0.76600
C1220       C  0.56282394  0.77416247  0.57606444     0.99300
C1221       C  0.70668778  0.77199230  0.56674927     0.94200
O1222       O  0.72538120  0.82065182  0.56378782    -0.81900
C1223       C  0.51113069  0.55518417  0.75705716     0.03600
C1224       C  0.55630443  0.55390119  0.75441985    -0.12600
C1225       C  0.55625509  0.00645717  0.75149360     0.01100
C1226       C  0.00982340  0.95998690  0.75025018    -0.11100
C1227       C  0.96435405  0.96091647  0.75307531     0.03600
C1228       C  0.96539326  0.00856685  0.75660563    -0.10500
H1229       H  0.59161031  0.59002457  0.75427688     0.09200
H1230       H  0.00888416  0.92320453  0.74643335     0.06700
H1231       H  0.93043254  0.00939868  0.75837115     0.06500
N1232       N  0.74843960  0.01660389  0.73374163    -0.03000
C1233       C  0.79181869  0.55345978  0.75466140    -0.00400
C1234       C  0.83183500  0.54827173  0.73859971    -0.23300
C1235       C  0.81289485  0.00674713  0.70811264    -0.23500
C1236       C  0.76166755  0.98739480  0.70581351    -0.00500
H1237       H  0.87050820  0.57024046  0.75050863     0.13200
H1238       H  0.83418504  0.99120768  0.69065219     0.13300
N1239       N  0.50776202  0.74665166  0.76060212    -0.03000
C1240       C  0.97836187  0.75844289  0.78848574    -0.00400
C1241       C  0.99174873  0.81002476  0.78213784    -0.23300
C1242       C  0.53050059  0.83063730  0.75035811    -0.23500
C1243       C  0.54018906  0.79148508  0.73777895    -0.00500
H1244       H  0.97504482  0.83079792  0.79895874     0.13200
H1245       H  0.54931642  0.87006549  0.73717033     0.13300
N1246       N  0.77563524  0.77140715  0.74859449    -0.03000
C1247       C  0.76972051  0.72754454  0.77032562    -0.00400
C1248       C  0.72642817  0.68474715  0.75367564    -0.23300
C1249       C  0.70431023  0.70216652  0.72188512    -0.23500
C1250       C  0.73463416  0.75516241  0.71920144    -0.00500
H1251       H  0.71070152  0.64506252  0.76583609     0.13200
H1252       H  0.66874356  0.67873675  0.70373472     0.13300
C1253       C  0.53232841  0.68722681  0.79667540    -0.08700
C1254       C  0.50833523  0.69866867  0.75955478     0.07500
C1255       C  0.98587927  0.66345423  0.72146326    -0.02500
C1256       C  0.98698506  0.61683804  0.72126574    -0.06900
C1257       C  0.51123548  0.60520323  0.75832555     0.06600
C1258       C  0.53430454  0.64110742  0.79612476    -0.02000
Br1259     Br  0.56740717  0.62842511  0.84858830    -0.01700
H1260       H  0.54972178  0.71450614  0.82598634     0.10500
H1261       H  0.96928271  0.58976337  0.69192350     0.08500
Br1262     Br  0.95363783  0.67810409  0.66932476    -0.02100
C1263       C  0.63934715  0.53829397  0.71185782    -0.08700
C1264       C  0.60490496  0.00652566  0.74696813     0.07500
C1265       C  0.61871718  0.97751275  0.77782180    -0.02500
C1266       C  0.66572252  0.98044302  0.77275992    -0.06900
C1267       C  0.69968170  0.01229847  0.73766814     0.06600
C1268       C  0.68623428  0.54138531  0.70724367    -0.02000
Br1269     Br  0.73158014  0.58638677  0.65928420    -0.01700
H1270       H  0.62981749  0.56106091  0.68793477     0.10500
H1271       H  0.67628891  0.95862407  0.79680228     0.08500
Br1272     Br  0.57680798  0.93633632  0.82966991    -0.02100
C1273       C  0.88485944  0.89622721  0.79257403    -0.08700
C1274       C  0.91528224  0.91240458  0.75139193     0.07500
C1275       C  0.89721553  0.88353200  0.70854727    -0.02500
C1276       C  0.85031187  0.83835911  0.70789372    -0.06900
C1277       C  0.82052469  0.82129117  0.74935315     0.06600
C1278       C  0.83782543  0.85102091  0.79183174    -0.02000
Br1279     Br  0.79782519  0.83226800  0.84897777    -0.01700
H1280       H  0.89782598  0.91880405  0.82542631     0.10500
H1281       H  0.83734888  0.81568102  0.67514511     0.08500
Br1282     Br  0.93461495  0.90510090  0.64975537    -0.02100
C1283       C  0.66584533  0.63293366  0.96903858    -0.08700
C1284       C  0.67384039  0.68184595  0.98330124     0.07500
C1285       C  0.63182275  0.68960521  0.48194177    -0.02500
C1286       C  0.58339850  0.64597549  0.97801619    -0.06900
C1287       C  0.57764814  0.59698625  0.96573885     0.06600
C1288       C  0.62029617  0.59564203  0.95118465    -0.02000
Br1289     Br  0.61780219  0.54647116  0.90469376    -0.01700
H1290       H  0.69322887  0.62135164  0.97499532     0.10500
H1291       H  0.55114436  0.65077839  0.48422728     0.08500
Br1292     Br  0.63801053  0.75687337  0.47825360    -0.02100
C1293       C  0.53710391  0.90127908  0.49827598    -0.08700
C1294       C  0.99304902  0.90465785  0.00599199     0.07500
C1295       C  0.94785355  0.85692274  0.01115979    -0.02500
C1296       C  0.94951436  0.81185263  0.02201811    -0.06900
C1297       C  0.99322369  0.80898366  0.01577206     0.06600
C1298       C  0.53656451  0.85360865  0.50047374    -0.02000
Br1299     Br  0.59190687  0.84932204  0.47393702    -0.01700
H1300       H  0.57134441  0.93425256  0.48660208     0.10500
H1301       H  0.91531902  0.77670594  0.02972861     0.08500
Br1302     Br  0.88456260  0.84555248  0.98583096    -0.02100
C1303       C  0.86630590  0.97824400  0.95936982    -0.08700
C1304       C  0.89577398  0.49639445  0.00110010     0.07500
C1305       C  0.87797630  0.50998829  0.54183176    -0.02500
C1306       C  0.83153958  0.50766584  0.53957672    -0.06900
C1307       C  0.80263885  0.49088519  0.99738687     0.06600
C1308       C  0.81954767  0.97506874  0.95742408    -0.02000
Br1309     Br  0.77974137  0.94875255  0.90008031    -0.01700
H1310       H  0.87990638  0.96686114  0.92829375     0.10500
H1311       H  0.81815695  0.51975974  0.57029526     0.08500
Br1312     Br  0.91629092  0.53261269  0.60030745    -0.02100
loop_ 
_geom_bond_atom_site_label_1 
_geom_bond_atom_site_label_2 
_geom_bond_distance 
_geom_bond_site_symmetry_2 
_ccdc_geom_bond_type 
O1           C16   1.273       .  A
O1           Al9   1.945       .  S
C2           O12   1.271       .  A
C2            O3   1.257       .  A
C2           C50   1.491       .  S
O3           Al5   1.871       .  S
O4            C6   1.268       .  A
O4           Al5   1.972       .  S
Al5          O13   1.961       .  S
Al5          O15   1.899       .  S
Al5          O14   1.775       .  S
C6           O19   1.248       .  A
C6           C36   1.483       .  S
O7           C17   1.268       .  A
O7           Al9   1.913       .  S
O8           C21   1.267       .  A
O8          Al18   1.969       .  S
Al9          O22   1.865       .  S
Al9          O19   1.866       .  S
Al9          O14   1.781       .  S
O10          C17   1.265       .  A
O10         Al18   1.930       .  S
O11          C20   1.257       .  A
O11         Al18   1.862       .  S
O12         Al18   1.954       .  S
O13          C20   1.271       .  A
O14         Al18   1.785       .  S
O15          C16   1.267       .  A
C16          C85   1.483       .  S
C17          C43   1.495       .  S
C20          C92   1.487       .  S
C21          O22   1.251       .  A
C21          C99   1.480       .  S
C23         C146   1.518       .  S
C23          C28   1.402       .  A
C23         C680   1.408       .  A
C24         C679   1.408   1_455  A
C24         C353   1.422       .  A
C24          H29   1.073       .  S
C25         C139   1.489       .  S
C25          C26   1.393   1_455  A
C25         C352   1.422       .  A
C26         C683   1.391       .  A
C26          H30   1.083       .  S
C27         C156   1.451   1_545  S
C27         C682   1.391       .  A
C27         C356   1.392   1_545  A
C28         C355   1.392       .  A
C28          H31   1.078       .  S
N32          C36   1.353   1_565  A
N32         C525   1.358       .  A
N32         C159   1.420       .  S
C33          C68   1.475       .  S
C33          C34   1.377       .  A
C33         N524   1.358   1_554  A
C34         C527   1.363   1_554  A
C34          H37   1.080       .  S
C35          C36   1.378       .  A
C35         C526   1.363   1_545  A
C35          H38   1.070       .  S
N39          C43   1.373       .  A
N39         C204   1.375       .  A
N39         C136   1.453       .  S
C40          C73   1.485       .  S
C40          C41   1.377       .  A
C40         N203   1.375       .  A
C41         C206   1.364       .  A
C41          H44   1.082       .  S
C42          C43   1.372       .  A
C42         C205   1.364       .  A
C42          H45   1.074       .  S
N46         C214   1.367   1_554  A
N46         C703   1.371       .  A
N46         C313   1.443       .  S
C47          C72   1.488       .  S
C47          C48   1.382   1_455  A
C47         N702   1.371   1_455  A
C48         C869   1.362       .  A
C48          H51   1.083   1_655  S
C49          C50   1.383       .  A
C49         C868   1.362       .  A
C49          H52   1.083       .  S
C50         N210   1.367       .  A
O53          C68   1.262       .  A
O53         Al61   1.936       .  S
C54          O64   1.261       .  A
C54          O55   1.256       .  A
C54          C95   1.479       .  S
O55         Al57   1.869       .  S
O56          C58   1.265       .  A
O56         Al57   1.948       .  S
Al57         O65   1.964       .  S
Al57         O67   1.860       .  S
Al57         O66   1.786       .  S
C58          O71   1.263       .  A
C58          C88   1.483       .  S
O59          C69   1.265       .  A
O59         Al61   1.950       .  S
O60          C73   1.265       .  A
O60         Al70   1.951       .  S
Al61         O74   1.914       .  S
Al61         O71   1.883       .  S
Al61         O66   1.789       .  S
O62          C69   1.264       .  A
O62         Al70   1.886       .  S
O63          C72   1.264       .  A
O63         Al70   1.876       .  S
O64         Al70   1.943       .  S
O65          C72   1.269       .  A
O66         Al70   1.782       .  S
O67          C68   1.256       .  A
C69         C102   1.475       .  S
C73          O74   1.266       .  A
C75         C109   1.482       .  S
C75          C76   1.405       .  A
C75        C1064   1.402   1_455  A
C76         C405   1.408       .  A
C76          H81   1.084       .  S
C77         C116   1.495       .  S
C77         C404   1.408       .  A
C77         C734   1.411       .  A
C78          C79   1.409       .  A
C78         C733   1.411       .  A
C78          H82   1.082       .  S
C79         C126   1.483       .  S
C79          C80   1.401       .  A
C80        C1059   1.402       .  A
C80          H83   1.085       .  S
N84          C88   1.366       .  A
N84         C413   1.364       .  A
N84         C119   1.440       .  S
C85          C86   1.384       .  A
C85         N412   1.364       .  A
C86         C415   1.365       .  A
C86          H89   1.083       .  S
C87          C88   1.381       .  A
C87         C414   1.365       .  A
C87          H90   1.083       .  S
N91          C95   1.363       .  A
N91         C748   1.360   1_455  A
N91         C106   1.432       .  S
C92          C93   1.386       .  A
C92         N747   1.360       .  A
C93         C750   1.363       .  A
C93          H96   1.083       .  S
C94          C95   1.378       .  A
C94         C749   1.363   1_455  A
C94          H97   1.082       .  S
N98         C102   1.368       .  A
N98          C99   1.362       .  A
N98         C129   1.440       .  S
C99         C100   1.385       .  A
C100        C101   1.358       .  A
C100        H103   1.083       .  S
C101        C102   1.378       .  A
C101        H104   1.083       .  S
C105        C106   1.399       .  A
C105        C110   1.398       .  A
C105        H112   1.083       .  S
C106        C763   1.404   1_455  A
C107        C108   1.399       .  A
C107        C762   1.404       .  A
C107       Br114   1.915       .  S
C108        C765   1.405       .  A
C108        H113   1.082       .  S
C109        C110   1.410       .  A
C109        C764   1.405   1_455  A
C110       Br111   1.911       .  S
C115        C120   1.400       .  A
C115        C444   1.407       .  A
C115        H122   1.083       .  S
C116        C117   1.417       .  A
C116        C443   1.407       .  A
C117        C118   1.407       .  A
C117       Br124   1.919       .  S
C118        C119   1.402       .  A
C118        H123   1.083       .  S
C119        C448   1.405       .  A
C120        C447   1.405       .  A
C120       Br121   1.917       .  S
C125        C126   1.406       .  A
C125        C130   1.403       .  A
C125        H132   1.084       .  S
C126        C127   1.409       .  A
C127        C128   1.401       .  A
C127       Br134   1.919       .  S
C128        C129   1.403       .  A
C128        H133   1.082       .  S
C129        C130   1.409       .  A
C130       Br131   1.917       .  S
C135        C136   1.404       .  A
C135        C140   1.374       .  A
C135        H142   1.064       .  S
C136        C301   1.415       .  A
C137        C300   1.415       .  A
C137        C302   1.412       .  A
C137       Br144   1.911       .  S
C138        C139   1.416       .  A
C138        C301   1.412       .  A
C138        H307   1.080       .  S
C139        C140   1.389       .  A
C140       Br141   1.921       .  S
H143        C302   1.080       .  S
C145        C150   1.406   1_556  A
C145        C966   1.419   1_456  A
C145        H152   1.074       .  S
C146        C147   1.418       .  A
C146        C965   1.419       .  A
C147        C148   1.395       .  A
C147       Br154   1.926       .  S
C148        C149   1.394       .  A
C148        H153   1.075       .  S
C149        C970   1.403       .  A
C149        N210   1.443       .  S
C150        C969   1.403   1_455  A
C150       Br151   1.913   1_554  S
C155        C160   1.389       .  A
C155        C484   1.400       .  A
C155        H162   1.084       .  S
C156        C483   1.400       .  A
C156        C321   1.401   1_565  A
C157        C158   1.391       .  A
C157        C320   1.401   1_545  A
C157       Br164   1.917       .  S
C158        C323   1.401   1_544  A
C158        H163   1.083       .  S
C159        C322   1.401   1_565  A
C159        C488   1.402       .  A
C160        C487   1.402       .  A
C160       Br161   1.918       .  S
O165        C180   1.273       .  A
O165       Al173   1.945       .  S
C166        O176   1.271       .  A
C166        O167   1.257       .  A
C166        C214   1.491       .  S
O167       Al169   1.871       .  S
O168        C170   1.268       .  A
O168       Al169   1.972       .  S
Al169       O177   1.961       .  S
Al169       O179   1.899       .  S
Al169       O178   1.775       .  S
C170        O183   1.248       .  A
C170        C200   1.483       .  S
O171        C181   1.268       .  A
O171       Al173   1.913       .  S
O172        C185   1.267       .  A
O172       Al182   1.969       .  S
Al173       O186   1.865       .  S
Al173       O183   1.866       .  S
Al173       O178   1.781       .  S
O174        C181   1.265       .  A
O174       Al182   1.930       .  S
O175        C184   1.257       .  A
O175       Al182   1.862       .  S
O176       Al182   1.954       .  S
O177        C184   1.271       .  A
O178       Al182   1.785       .  S
O179        C180   1.267       .  A
C180        C249   1.483       .  S
C181        C207   1.495       .  S
C184        C256   1.487       .  S
C185        O186   1.251       .  A
C185        C263   1.480       .  S
C187        C310   1.518       .  S
C187        C844   1.408   1_554  A
C187        C192   1.402       .  A
C188        C843   1.408   1_456  A
C188        C517   1.422       .  A
C188        H193   1.073       .  S
C189        C303   1.489       .  S
C189        C516   1.422       .  A
C189        C190   1.393   1_455  A
C190        C847   1.391   1_556  A
C190        H194   1.083       .  S
C191        C320   1.451   1_545  S
C191        C846   1.391   1_554  A
C191        C520   1.392   1_545  A
C192        C519   1.392       .  A
C192        H195   1.078       .  S
N196        C200   1.353   1_565  A
N196        C361   1.358   1_556  A
N196        C323   1.420       .  S
C197        C232   1.475       .  S
C197        C198   1.377       .  A
C197        N360   1.358       .  A
C198        C363   1.363       .  A
C198        H201   1.080       .  S
C199        C362   1.363   1_546  A
C199        C200   1.378       .  A
C199        H202   1.070       .  S
N203        C207   1.373   1_554  A
N203        C300   1.453   1_554  S
C204        C237   1.485       .  S
C204        C205   1.377       .  A
C205        H208   1.082       .  S
C206        C207   1.372   1_554  A
C206        H209   1.074       .  S
N210        C867   1.371       .  A
C211        C236   1.488       .  S
C211        C212   1.382   1_455  A
C211        N866   1.371   1_455  A
C212        C705   1.362       .  A
C212        H215   1.083   1_655  S
C213        C704   1.362       .  A
C213        C214   1.383   1_554  A
C213        H216   1.083   1_554  S
O217        C232   1.262       .  A
O217       Al225   1.936       .  S
C218        O228   1.261       .  A
C218        O219   1.256       .  A
C218        C259   1.479       .  S
O219       Al221   1.869       .  S
O220        C222   1.265       .  A
O220       Al221   1.948       .  S
Al221       O229   1.964       .  S
Al221       O231   1.860       .  S
Al221       O230   1.786       .  S
C222        O235   1.263       .  A
C222        C252   1.483       .  S
O223        C233   1.265       .  A
O223       Al225   1.950       .  S
O224        C237   1.265       .  A
O224       Al234   1.951       .  S
Al225       O238   1.914       .  S
Al225       O235   1.883       .  S
Al225       O230   1.789       .  S
O226        C233   1.264       .  A
O226       Al234   1.886       .  S
O227        C236   1.264       .  A
O227       Al234   1.876       .  S
O228       Al234   1.943       .  S
O229        C236   1.269       .  A
O230       Al234   1.782       .  S
O231        C232   1.256       .  A
C233        C266   1.475       .  S
C237        O238   1.266       .  A
C239        C273   1.482       .  S
C239        C240   1.405       .  A
C239       C1228   1.402   1_455  A
C240        C569   1.408       .  A
C240        H245   1.084       .  S
C241        C280   1.495       .  S
C241        C568   1.408       .  A
C241        C898   1.411       .  A
C242        C897   1.411       .  A
C242        C243   1.409       .  A
C242        H246   1.082       .  S
C243        C290   1.483       .  S
C243        C244   1.401       .  A
C244       C1223   1.402       .  A
C244        H247   1.085       .  S
N248        C252   1.366       .  A
N248        C577   1.364       .  A
N248        C283   1.440       .  S
C249        C250   1.384       .  A
C249        N576   1.364       .  A
C250        C579   1.365       .  A
C250        H253   1.083       .  S
C251        C578   1.365       .  A
C251        C252   1.381       .  A
C251        H254   1.083       .  S
N255        C259   1.363       .  A
N255        C912   1.360   1_455  A
N255        C270   1.432       .  S
C256        C257   1.386       .  A
C256        N911   1.360       .  A
C257        C914   1.363       .  A
C257        H260   1.083       .  S
C258        C913   1.363   1_455  A
C258        C259   1.378       .  A
C258        H261   1.082       .  S
N262        C266   1.368       .  A
N262        C263   1.362       .  A
N262        C293   1.440       .  S
C263        C264   1.385       .  A
C264        C265   1.358       .  A
C264        H267   1.083       .  S
C265        C266   1.378       .  A
C265        H268   1.083       .  S
C269        C270   1.399       .  A
C269        C274   1.398       .  A
C269        H276   1.083       .  S
C270        C927   1.404   1_455  A
C271        C926   1.404       .  A
C271        C272   1.399       .  A
C271       Br278   1.915       .  S
C272        C929   1.405       .  A
C272        H277   1.082       .  S
C273        C928   1.405   1_455  A
C273        C274   1.410       .  A
C274       Br275   1.911       .  S
C279        C608   1.407       .  A
C279        C284   1.400       .  A
C279        H286   1.083       .  S
C280        C607   1.407       .  A
C280        C281   1.417       .  A
C281        C282   1.407       .  A
C281       Br288   1.919       .  S
C282        C283   1.402       .  A
C282        H287   1.083       .  S
C283        C612   1.405       .  A
C284        C611   1.405       .  A
C284       Br285   1.917       .  S
C289        C290   1.406       .  A
C289        C294   1.403       .  A
C289        H296   1.084       .  S
C290        C291   1.409       .  A
C291        C292   1.401       .  A
C291       Br298   1.919       .  S
C292        C293   1.403       .  A
C292        H297   1.082       .  S
C293        C294   1.409       .  A
C294       Br295   1.917       .  S
C299        C300   1.404       .  A
C299        C304   1.374       .  A
C299        H306   1.064       .  S
C301       Br308   1.911       .  S
C302        C303   1.416       .  A
C303        C304   1.389       .  A
C304       Br305   1.921       .  S
C309        C802   1.419   1_455  A
C309        C314   1.406       .  A
C309        H316   1.074       .  S
C310        C801   1.419   1_554  A
C310        C311   1.418       .  A
C311        C312   1.395       .  A
C311       Br318   1.926   1_554  S
C312        C313   1.394       .  A
C312        H317   1.075       .  S
C313        C806   1.403       .  A
C314        C805   1.403   1_455  A
C314       Br315   1.913       .  S
C319        C648   1.400   1_556  A
C319        C324   1.389       .  A
C319        H326   1.084       .  S
C320        C647   1.400   1_554  A
C321        C322   1.391       .  A
C321       Br328   1.917       .  S
C322        H327   1.083       .  S
C323        C652   1.402       .  A
C324        C651   1.402       .  A
C324       Br325   1.918       .  S
O329        C344   1.273       .  A
O329       Al337   1.945       .  S
C330        O340   1.271       .  A
C330        O331   1.257       .  A
C330        C378   1.491       .  S
O331       Al333   1.871       .  S
O332        C334   1.268       .  A
O332       Al333   1.972       .  S
Al333       O341   1.961       .  S
Al333       O343   1.899       .  S
Al333       O342   1.775       .  S
C334        O347   1.248       .  A
C334        C364   1.483       .  S
O335        C345   1.268       .  A
O335       Al337   1.913       .  S
O336        C349   1.267       .  A
O336       Al346   1.969       .  S
Al337       O350   1.865       .  S
Al337       O347   1.866       .  S
Al337       O342   1.781       .  S
O338        C345   1.265       .  A
O338       Al346   1.930       .  S
O339        C348   1.257       .  A
O339       Al346   1.862       .  S
O340       Al346   1.954       .  S
O341        C348   1.271       .  A
O342       Al346   1.785       .  S
O343        C344   1.267       .  A
C344        C413   1.483       .  S
C345        C371   1.495       .  S
C348        C420   1.487       .  S
C349        O350   1.251       .  A
C349        C427   1.480       .  S
C351        C474   1.518       .  S
C351       C1008   1.408   1_565  A
C351        C356   1.402       .  A
C352       C1007   1.408   1_445  A
C352        H357   1.073       .  S
C353        C467   1.489       .  S
C353        C354   1.393   1_455  A
C354       C1011   1.391       .  A
C354        H358   1.083       .  S
C355        C484   1.451       .  S
C355       C1010   1.391       .  A
C356        H359   1.078       .  S
N360        C364   1.353       .  A
N360        C487   1.420       .  S
C361        C396   1.475       .  S
C361        C362   1.377       .  A
C362        H365   1.080       .  S
C363        C364   1.378       .  A
C363        H366   1.070       .  S
N367        C371   1.373       .  A
N367        C532   1.375       .  A
N367        C464   1.453       .  S
C368        C401   1.485       .  S
C368        C369   1.377       .  A
C368        N531   1.375       .  A
C369        C534   1.364       .  A
C369        H372   1.082       .  S
C370        C533   1.364       .  A
C370        C371   1.372       .  A
C370        H373   1.074       .  S
N374        C542   1.367   1_554  A
N374       C1031   1.371       .  A
N374        C641   1.443       .  S
C375        C400   1.488       .  S
C375        C376   1.382   1_455  A
C375       N1030   1.371   1_455  A
C376       C1197   1.362       .  A
C376        H379   1.083   1_655  S
C377       C1196   1.362       .  A
C377        C378   1.383       .  A
C377        H380   1.083       .  S
C378        N538   1.367       .  A
O381        C396   1.262       .  A
O381       Al389   1.936       .  S
C382        O392   1.261       .  A
C382        O383   1.256       .  A
C382        C423   1.479       .  S
O383       Al385   1.869       .  S
O384        C386   1.265       .  A
O384       Al385   1.948       .  S
Al385       O393   1.964       .  S
Al385       O395   1.860       .  S
Al385       O394   1.786       .  S
C386        O399   1.263       .  A
C386        C416   1.483       .  S
O387        C397   1.265       .  A
O387       Al389   1.950       .  S
O388        C401   1.265       .  A
O388       Al398   1.951       .  S
Al389       O402   1.914       .  S
Al389       O399   1.883       .  S
Al389       O394   1.789       .  S
O390        C397   1.264       .  A
O390       Al398   1.886       .  S
O391        C400   1.264       .  A
O391       Al398   1.876       .  S
O392       Al398   1.943       .  S
O393        C400   1.269       .  A
O394       Al398   1.782       .  S
O395        C396   1.256       .  A
C397        C430   1.475       .  S
C401        O402   1.266       .  A
C403        C437   1.482       .  S
C403        C404   1.405       .  A
C403        C736   1.402   1_455  A
C404        H409   1.084       .  S
C405        C444   1.495       .  S
C405       C1062   1.411   1_545  A
C406       C1061   1.411   1_565  A
C406        C407   1.409       .  A
C406        H410   1.082       .  S
C407        C454   1.483       .  S
C407        C408   1.401   1_565  A
C408        C731   1.402       .  A
C408        H411   1.085       .  S
N412        C416   1.366   1_545  A
N412        C447   1.440       .  S
C413        C414   1.384       .  A
C414        H417   1.083       .  S
C415        C416   1.381   1_545  A
C415        H418   1.083   1_545  S
N419        C423   1.363       .  A
N419       C1076   1.360   1_455  A
N419        C434   1.432       .  S
C420        C421   1.386       .  A
C420       N1075   1.360       .  A
C421       C1078   1.363       .  A
C421        H424   1.083       .  S
C422       C1077   1.363   1_455  A
C422        C423   1.378       .  A
C422        H425   1.082       .  S
N426        C430   1.368       .  A
N426        C427   1.362       .  A
N426        C457   1.440       .  S
C427        C428   1.385       .  A
C428        C429   1.358       .  A
C428        H431   1.083       .  S
C429        C430   1.378       .  A
C429        H432   1.083       .  S
C433        C434   1.399       .  A
C433        C438   1.398       .  A
C433        H440   1.083       .  S
C434       C1091   1.404   1_455  A
C435       C1090   1.404       .  A
C435        C436   1.399       .  A
C435       Br442   1.915       .  S
C436       C1093   1.405       .  A
C436        H441   1.082       .  S
C437       C1092   1.405   1_455  A
C437        C438   1.410       .  A
C438       Br439   1.911       .  S
C443        C448   1.400       .  A
C443        H450   1.083       .  S
C444        C445   1.417   1_545  A
C445        C446   1.407       .  A
C445       Br452   1.919       .  S
C446        C447   1.402   1_565  A
C446        H451   1.083       .  S
C448       Br449   1.917       .  S
C453        C454   1.406       .  A
C453        C458   1.403       .  A
C453        H460   1.084       .  S
C454        C455   1.409       .  A
C455        C456   1.401       .  A
C455       Br462   1.919       .  S
C456        C457   1.403       .  A
C456        H461   1.082       .  S
C457        C458   1.409       .  A
C458       Br459   1.917       .  S
C463        C464   1.404       .  A
C463        C468   1.374       .  A
C463        H470   1.064       .  S
C464        C629   1.415       .  A
C465        C628   1.415       .  A
C465        C630   1.412       .  A
C465       Br472   1.911       .  S
C466        C629   1.412       .  A
C466        C467   1.416       .  A
C466        H635   1.080       .  S
C467        C468   1.389       .  A
C468       Br469   1.921       .  S
H471        C630   1.080       .  S
C473       C1294   1.419   1_456  A
C473        C478   1.406   1_556  A
C473        H480   1.074       .  S
C474       C1293   1.419       .  A
C474        C475   1.418       .  A
C475        C476   1.395       .  A
C475       Br482   1.926       .  S
C476        C477   1.394       .  A
C476        H481   1.075       .  S
C477       C1298   1.403       .  A
C477        N538   1.443       .  S
C478       C1297   1.403   1_455  A
C478       Br479   1.913   1_554  S
C483        C488   1.389       .  A
C483        H490   1.084       .  S
C484        C649   1.401       .  A
C485        C648   1.401       .  A
C485        C486   1.391       .  A
C485       Br492   1.917       .  S
C486        C651   1.401   1_554  A
C486        H491   1.083       .  S
C487        C650   1.401       .  A
C488       Br489   1.918       .  S
O493        C508   1.273       .  A
O493       Al501   1.945       .  S
C494        O504   1.271       .  A
C494        O495   1.257       .  A
C494        C542   1.491       .  S
O495       Al497   1.871       .  S
O496        C498   1.268       .  A
O496       Al497   1.972       .  S
Al497       O505   1.961       .  S
Al497       O507   1.899       .  S
Al497       O506   1.775       .  S
C498        O511   1.248       .  A
C498        C528   1.483       .  S
O499        C509   1.268       .  A
O499       Al501   1.913       .  S
O500        C513   1.267       .  A
O500       Al510   1.969       .  S
Al501       O514   1.865       .  S
Al501       O511   1.866       .  S
Al501       O506   1.781       .  S
O502        C509   1.265       .  A
O502       Al510   1.930       .  S
O503        C512   1.257       .  A
O503       Al510   1.862       .  S
O504       Al510   1.954       .  S
O505        C512   1.271       .  A
O506       Al510   1.785       .  S
O507        C508   1.267       .  A
C508        C577   1.483       .  S
C509        C535   1.495       .  S
C512        C584   1.487       .  S
C513        O514   1.251       .  A
C513        C591   1.480       .  S
C515        C638   1.518       .  S
C515       C1172   1.408   1_564  A
C515        C520   1.402       .  A
C516       C1171   1.408   1_446  A
C516        H521   1.073       .  S
C517        C631   1.489       .  S
C517        C518   1.393   1_455  A
C518       C1175   1.391   1_556  A
C518        H522   1.083       .  S
C519        C648   1.451       .  S
C519       C1174   1.391   1_554  A
C520        H523   1.078       .  S
N524        C528   1.353       .  A
N524        C651   1.420       .  S
C525        C560   1.475       .  S
C525        C526   1.377       .  A
C526        H529   1.080       .  S
C527        C528   1.378       .  A
C527        H530   1.070       .  S
N531        C535   1.373   1_554  A
N531        C628   1.453   1_554  S
C532        C565   1.485       .  S
C532        C533   1.377       .  A
C533        H536   1.082       .  S
C534        C535   1.372   1_554  A
C534        H537   1.074       .  S
N538       C1195   1.371       .  A
C539        C564   1.488       .  S
C539        C540   1.382   1_455  A
C539       N1194   1.371   1_455  A
C540       C1033   1.362       .  A
C540        H543   1.083   1_655  S
C541       C1032   1.362       .  A
C541        C542   1.383   1_554  A
C541        H544   1.083   1_554  S
O545        C560   1.262       .  A
O545       Al553   1.936       .  S
C546        O556   1.261       .  A
C546        O547   1.256       .  A
C546        C587   1.479       .  S
O547       Al549   1.869       .  S
O548        C550   1.265       .  A
O548       Al549   1.948       .  S
Al549       O557   1.964       .  S
Al549       O559   1.860       .  S
Al549       O558   1.786       .  S
C550        O563   1.263       .  A
C550        C580   1.483       .  S
O551        C561   1.265       .  A
O551       Al553   1.950       .  S
O552        C565   1.265       .  A
O552       Al562   1.951       .  S
Al553       O566   1.914       .  S
Al553       O563   1.883       .  S
Al553       O558   1.789       .  S
O554        C561   1.264       .  A
O554       Al562   1.886       .  S
O555        C564   1.264       .  A
O555       Al562   1.876       .  S
O556       Al562   1.943       .  S
O557        C564   1.269       .  A
O558       Al562   1.782       .  S
O559        C560   1.256       .  A
C561        C594   1.475       .  S
C565        O566   1.266       .  A
C567        C601   1.482       .  S
C567        C568   1.405       .  A
C567        C900   1.402   1_455  A
C568        H573   1.084       .  S
C569        C608   1.495       .  S
C569       C1226   1.411   1_545  A
C570       C1225   1.411   1_565  A
C570        C571   1.409       .  A
C570        H574   1.082       .  S
C571        C618   1.483       .  S
C571        C572   1.401   1_565  A
C572        C895   1.402       .  A
C572        H575   1.085       .  S
N576        C580   1.366   1_545  A
N576        C611   1.440       .  S
C577        C578   1.384       .  A
C578        H581   1.083       .  S
C579        C580   1.381   1_545  A
C579        H582   1.083   1_545  S
N583        C587   1.363       .  A
N583       C1240   1.360   1_455  A
N583        C598   1.432       .  S
C584        C585   1.386       .  A
C584       N1239   1.360       .  A
C585       C1242   1.363       .  A
C585        H588   1.083       .  S
C586       C1241   1.363   1_455  A
C586        C587   1.378       .  A
C586        H589   1.082       .  S
N590        C594   1.368       .  A
N590        C591   1.362       .  A
N590        C621   1.440       .  S
C591        C592   1.385       .  A
C592        C593   1.358       .  A
C592        H595   1.083       .  S
C593        C594   1.378       .  A
C593        H596   1.083       .  S
C597        C598   1.399       .  A
C597        C602   1.398       .  A
C597        H604   1.083       .  S
C598       C1255   1.404   1_455  A
C599       C1254   1.404       .  A
C599        C600   1.399       .  A
C599       Br606   1.915       .  S
C600       C1257   1.405       .  A
C600        H605   1.082       .  S
C601       C1256   1.405   1_455  A
C601        C602   1.410       .  A
C602       Br603   1.911       .  S
C607        C612   1.400       .  A
C607        H614   1.083       .  S
C608        C609   1.417   1_545  A
C609        C610   1.407       .  A
C609       Br616   1.919       .  S
C610        C611   1.402   1_565  A
C610        H615   1.083       .  S
C612       Br613   1.917       .  S
C617        C618   1.406       .  A
C617        C622   1.403       .  A
C617        H624   1.084       .  S
C618        C619   1.409       .  A
C619        C620   1.401       .  A
C619       Br626   1.919       .  S
C620        C621   1.403       .  A
C620        H625   1.082       .  S
C621        C622   1.409       .  A
C622       Br623   1.917       .  S
C627        C628   1.404       .  A
C627        C632   1.374       .  A
C627        H634   1.064       .  S
C629       Br636   1.911       .  S
C630        C631   1.416       .  A
C631        C632   1.389       .  A
C632       Br633   1.921       .  S
C637       C1130   1.419   1_455  A
C637        C642   1.406       .  A
C637        H644   1.074       .  S
C638       C1129   1.419   1_554  A
C638        C639   1.418       .  A
C639        C640   1.395       .  A
C639       Br646   1.926   1_554  S
C640        C641   1.394       .  A
C640        H645   1.075       .  S
C641       C1134   1.403       .  A
C642       C1133   1.403   1_455  A
C642       Br643   1.913       .  S
C647        C652   1.389       .  A
C647        H654   1.084       .  S
C649        C650   1.391       .  A
C649       Br656   1.917       .  S
C650        H655   1.083       .  S
C652       Br653   1.918       .  S
O657        C672   1.273       .  A
O657       Al665   1.945       .  S
C658        O668   1.271       .  A
C658        O659   1.257       .  A
C658        C706   1.491       .  S
O659       Al661   1.871       .  S
O660        C662   1.268       .  A
O660       Al661   1.972       .  S
Al661       O669   1.961       .  S
Al661       O671   1.899       .  S
Al661       O670   1.775       .  S
C662        O675   1.248       .  A
C662        C692   1.483       .  S
O663        C673   1.268       .  A
O663       Al665   1.913       .  S
O664        C677   1.267       .  A
O664       Al674   1.969       .  S
Al665       O678   1.865       .  S
Al665       O675   1.866       .  S
Al665       O670   1.781       .  S
O666        C673   1.265       .  A
O666       Al674   1.930       .  S
O667        C676   1.257       .  A
O667       Al674   1.862       .  S
O668       Al674   1.954       .  S
O669        C676   1.271       .  A
O670       Al674   1.785       .  S
O671        C672   1.267       .  A
C672        C741   1.483       .  S
C673        C699   1.495       .  S
C676        C748   1.487       .  S
C677        O678   1.251       .  A
C677        C755   1.480       .  S
C679        C802   1.518       .  S
C679        C684   1.402       .  A
C680       C1009   1.422       .  A
C680        H685   1.073       .  S
C681        C795   1.489       .  S
C681       C1008   1.422       .  A
C681        C682   1.393       .  A
C682        H686   1.083       .  S
C683        C812   1.451   1_545  S
C683       C1012   1.392   1_545  A
C684       C1011   1.392       .  A
C684        H687   1.078       .  S
N688        C692   1.353   1_565  A
N688       C1181   1.358       .  A
N688        C815   1.420       .  S
C689        C724   1.475       .  S
C689        C690   1.377       .  A
C689       N1180   1.358   1_554  A
C690       C1183   1.363   1_554  A
C690        H693   1.080       .  S
C691       C1182   1.363   1_545  A
C691        C692   1.378       .  A
C691        H694   1.070       .  S
N695        C699   1.373       .  A
N695        C860   1.375       .  A
N695        C792   1.453       .  S
C696        C729   1.485       .  S
C696        C697   1.377       .  A
C696        N859   1.375       .  A
C697        C862   1.364       .  A
C697        H700   1.082       .  S
C698        C861   1.364       .  A
C698        C699   1.372       .  A
C698        H701   1.074       .  S
N702        C870   1.367   1_554  A
N702        C969   1.443       .  S
C703        C728   1.488       .  S
C703        C704   1.382       .  A
C704        H707   1.083       .  S
C705        C706   1.383       .  A
C705        H708   1.083       .  S
C706        N866   1.367       .  A
O709        C724   1.262       .  A
O709       Al717   1.936       .  S
C710        O720   1.261       .  A
C710        O711   1.256       .  A
C710        C751   1.479       .  S
O711       Al713   1.869       .  S
O712        C714   1.265       .  A
O712       Al713   1.948       .  S
Al713       O721   1.964       .  S
Al713       O723   1.860       .  S
Al713       O722   1.786       .  S
C714        O727   1.263       .  A
C714        C744   1.483       .  S
O715        C725   1.265       .  A
O715       Al717   1.950       .  S
O716        C729   1.265       .  A
O716       Al726   1.951       .  S
Al717       O730   1.914       .  S
Al717       O727   1.883       .  S
Al717       O722   1.789       .  S
O718        C725   1.264       .  A
O718       Al726   1.886       .  S
O719        C728   1.264       .  A
O719       Al726   1.876       .  S
O720       Al726   1.943       .  S
O721        C728   1.269       .  A
O722       Al726   1.782       .  S
O723        C724   1.256       .  A
C725        C758   1.475       .  S
C729        O730   1.266       .  A
C731        C765   1.482       .  S
C731        C732   1.405       .  A
C732       C1061   1.408       .  A
C732        H737   1.084       .  S
C733        C772   1.495       .  S
C733       C1060   1.408       .  A
C734        C735   1.409   1_455  A
C734        H738   1.082       .  S
C735        C782   1.483       .  S
C735        C736   1.401       .  A
C736        H739   1.085       .  S
N740        C744   1.366       .  A
N740       C1069   1.364       .  A
N740        C775   1.440       .  S
C741        C742   1.384       .  A
C741       N1068   1.364       .  A
C742       C1071   1.365       .  A
C742        H745   1.083       .  S
C743       C1070   1.365       .  A
C743        C744   1.381       .  A
C743        H746   1.083       .  S
N747        C751   1.363       .  A
N747        C762   1.432       .  S
C748        C749   1.386       .  A
C749        H752   1.083       .  S
C750        C751   1.378       .  A
C750        H753   1.082       .  S
N754        C758   1.368       .  A
N754        C755   1.362       .  A
N754        C785   1.440       .  S
C755        C756   1.385       .  A
C756        C757   1.358       .  A
C756        H759   1.083       .  S
C757        C758   1.378       .  A
C757        H760   1.083       .  S
C761        C762   1.399       .  A
C761        C766   1.398       .  A
C761        H768   1.083       .  S
C763        C764   1.399       .  A
C763       Br770   1.915       .  S
C764        H769   1.082       .  S
C765        C766   1.410       .  A
C766       Br767   1.911       .  S
C771       C1100   1.407       .  A
C771        C776   1.400       .  A
C771        H778   1.083       .  S
C772       C1099   1.407       .  A
C772        C773   1.417       .  A
C773        C774   1.407       .  A
C773       Br780   1.919       .  S
C774        C775   1.402       .  A
C774        H779   1.083       .  S
C775       C1104   1.405       .  A
C776       C1103   1.405       .  A
C776       Br777   1.917       .  S
C781        C782   1.406       .  A
C781        C786   1.403       .  A
C781        H788   1.084       .  S
C782        C783   1.409       .  A
C783        C784   1.401       .  A
C783       Br790   1.919       .  S
C784        C785   1.403       .  A
C784        H789   1.082       .  S
C785        C786   1.409       .  A
C786       Br787   1.917       .  S
C791        C792   1.404       .  A
C791        C796   1.374       .  A
C791        H798   1.064       .  S
C792        C957   1.415       .  A
C793        C956   1.415       .  A
C793        C958   1.412       .  A
C793       Br800   1.911       .  S
C794        C957   1.412       .  A
C794        C795   1.416       .  A
C794        H963   1.080       .  S
C795        C796   1.389       .  A
C796       Br797   1.921       .  S
H799        C958   1.080       .  S
C801        C806   1.406   1_556  A
C801        H808   1.074       .  S
C802        C803   1.418       .  A
C803        C804   1.395       .  A
C803       Br810   1.926       .  S
C804        C805   1.394       .  A
C804        H809   1.075       .  S
C805        N866   1.443       .  S
C806       Br807   1.913   1_554  S
C811       C1140   1.400       .  A
C811        C816   1.389       .  A
C811        H818   1.084       .  S
C812       C1139   1.400       .  A
C812        C977   1.401   1_565  A
C813        C976   1.401   1_545  A
C813        C814   1.391       .  A
C813       Br820   1.917       .  S
C814        C979   1.401   1_544  A
C814        H819   1.083       .  S
C815        C978   1.401   1_565  A
C815       C1144   1.402       .  A
C816       C1143   1.402       .  A
C816       Br817   1.918       .  S
O821        C836   1.273       .  A
O821       Al829   1.945       .  S
C822        O832   1.271       .  A
C822        O823   1.257       .  A
C822        C870   1.491       .  S
O823       Al825   1.871       .  S
O824        C826   1.268       .  A
O824       Al825   1.972       .  S
Al825       O833   1.961       .  S
Al825       O835   1.899       .  S
Al825       O834   1.775       .  S
C826        O839   1.248       .  A
C826        C856   1.483       .  S
O827        C837   1.268       .  A
O827       Al829   1.913       .  S
O828        C841   1.267       .  A
O828       Al838   1.969       .  S
Al829       O842   1.865       .  S
Al829       O839   1.866       .  S
Al829       O834   1.781       .  S
O830        C837   1.265       .  A
O830       Al838   1.930       .  S
O831        C840   1.257       .  A
O831       Al838   1.862       .  S
O832       Al838   1.954       .  S
O833        C840   1.271       .  A
O834       Al838   1.785       .  S
O835        C836   1.267       .  A
C836        C905   1.483       .  S
C837        C863   1.495       .  S
C840        C912   1.487       .  S
C841        O842   1.251       .  A
C841        C919   1.480       .  S
C843        C966   1.518       .  S
C843        C848   1.402       .  A
C844       C1173   1.422       .  A
C844        H849   1.073       .  S
C845        C959   1.489       .  S
C845       C1172   1.422       .  A
C845        C846   1.393       .  A
C846        H850   1.083       .  S
C847        C976   1.451   1_545  S
C847       C1176   1.392   1_545  A
C848       C1175   1.392       .  A
C848        H851   1.078       .  S
N852        C856   1.353   1_565  A
N852       C1017   1.358   1_556  A
N852        C979   1.420       .  S
C853        C888   1.475       .  S
C853        C854   1.377       .  A
C853       N1016   1.358       .  A
C854       C1019   1.363       .  A
C854        H857   1.080       .  S
C855       C1018   1.363   1_546  A
C855        C856   1.378       .  A
C855        H858   1.070       .  S
N859        C863   1.373   1_554  A
N859        C956   1.453   1_554  S
C860        C893   1.485       .  S
C860        C861   1.377       .  A
C861        H864   1.082       .  S
C862        C863   1.372   1_554  A
C862        H865   1.074       .  S
C867        C892   1.488       .  S
C867        C868   1.382       .  A
C868        H871   1.083       .  S
C869        C870   1.383   1_554  A
C869        H872   1.083   1_554  S
O873        C888   1.262       .  A
O873       Al881   1.936       .  S
C874        O884   1.261       .  A
C874        O875   1.256       .  A
C874        C915   1.479       .  S
O875       Al877   1.869       .  S
O876        C878   1.265       .  A
O876       Al877   1.948       .  S
Al877       O885   1.964       .  S
Al877       O887   1.860       .  S
Al877       O886   1.786       .  S
C878        O891   1.263       .  A
C878        C908   1.483       .  S
O879        C889   1.265       .  A
O879       Al881   1.950       .  S
O880        C893   1.265       .  A
O880       Al890   1.951       .  S
Al881       O894   1.914       .  S
Al881       O891   1.883       .  S
Al881       O886   1.789       .  S
O882        C889   1.264       .  A
O882       Al890   1.886       .  S
O883        C892   1.264       .  A
O883       Al890   1.876       .  S
O884       Al890   1.943       .  S
O885        C892   1.269       .  A
O886       Al890   1.782       .  S
O887        C888   1.256       .  A
C889        C922   1.475       .  S
C893        O894   1.266       .  A
C895        C929   1.482       .  S
C895        C896   1.405       .  A
C896       C1225   1.408       .  A
C896        H901   1.084       .  S
C897        C936   1.495       .  S
C897       C1224   1.408       .  A
C898        C899   1.409   1_455  A
C898        H902   1.082       .  S
C899        C946   1.483       .  S
C899        C900   1.401       .  A
C900        H903   1.085       .  S
N904        C908   1.366       .  A
N904       C1233   1.364       .  A
N904        C939   1.440       .  S
C905        C906   1.384       .  A
C905       N1232   1.364       .  A
C906       C1235   1.365       .  A
C906        H909   1.083       .  S
C907       C1234   1.365       .  A
C907        C908   1.381       .  A
C907        H910   1.083       .  S
N911        C915   1.363       .  A
N911        C926   1.432       .  S
C912        C913   1.386       .  A
C913        H916   1.083       .  S
C914        C915   1.378       .  A
C914        H917   1.082       .  S
N918        C922   1.368       .  A
N918        C919   1.362       .  A
N918        C949   1.440       .  S
C919        C920   1.385       .  A
C920        C921   1.358       .  A
C920        H923   1.083       .  S
C921        C922   1.378       .  A
C921        H924   1.083       .  S
C925        C926   1.399       .  A
C925        C930   1.398       .  A
C925        H932   1.083       .  S
C927        C928   1.399       .  A
C927       Br934   1.915       .  S
C928        H933   1.082       .  S
C929        C930   1.410       .  A
C930       Br931   1.911       .  S
C935       C1264   1.407       .  A
C935        C940   1.400       .  A
C935        H942   1.083       .  S
C936       C1263   1.407       .  A
C936        C937   1.417       .  A
C937        C938   1.407       .  A
C937       Br944   1.919       .  S
C938        C939   1.402       .  A
C938        H943   1.083       .  S
C939       C1268   1.405       .  A
C940       C1267   1.405       .  A
C940       Br941   1.917       .  S
C945        C946   1.406       .  A
C945        C950   1.403       .  A
C945        H952   1.084       .  S
C946        C947   1.409       .  A
C947        C948   1.401       .  A
C947       Br954   1.919       .  S
C948        C949   1.403       .  A
C948        H953   1.082       .  S
C949        C950   1.409       .  A
C950       Br951   1.917       .  S
C955        C956   1.404       .  A
C955        C960   1.374       .  A
C955        H962   1.064       .  S
C957       Br964   1.911       .  S
C958        C959   1.416       .  A
C959        C960   1.389       .  A
C960       Br961   1.921       .  S
C965        C970   1.406       .  A
C965        H972   1.074       .  S
C966        C967   1.418       .  A
C967        C968   1.395       .  A
C967       Br974   1.926   1_554  S
C968        C969   1.394       .  A
C968        H973   1.075       .  S
C970       Br971   1.913       .  S
C975       C1304   1.400   1_556  A
C975        C980   1.389       .  A
C975        H982   1.084       .  S
C976       C1303   1.400   1_554  A
C977        C978   1.391       .  A
C977       Br984   1.917       .  S
C978        H983   1.083       .  S
C979       C1308   1.402       .  A
C980       C1307   1.402       .  A
C980       Br981   1.918       .  S
O985       C1000   1.273       .  A
O985       Al993   1.945       .  S
C986        O996   1.271       .  A
C986        O987   1.257       .  A
C986       C1034   1.491       .  S
O987       Al989   1.871       .  S
O988        C990   1.268       .  A
O988       Al989   1.972       .  S
Al989       O997   1.961       .  S
Al989       O999   1.899       .  S
Al989       O998   1.775       .  S
C990       O1003   1.248       .  A
C990       C1020   1.483       .  S
O991       C1001   1.268       .  A
O991       Al993   1.913       .  S
O992       C1005   1.267       .  A
O992      Al1002   1.969       .  S
Al993      O1006   1.865       .  S
Al993      O1003   1.866       .  S
Al993       O998   1.781       .  S
O994       C1001   1.265       .  A
O994      Al1002   1.930       .  S
O995       C1004   1.257       .  A
O995      Al1002   1.862       .  S
O996      Al1002   1.954       .  S
O997       C1004   1.271       .  A
O998      Al1002   1.785       .  S
O999       C1000   1.267       .  A
C1000      C1069   1.483       .  S
C1001      C1027   1.495       .  S
C1004      C1076   1.487       .  S
C1005      O1006   1.251       .  A
C1005      C1083   1.480       .  S
C1007      C1130   1.518       .  S
C1007      C1012   1.402       .  A
C1008      H1013   1.073       .  S
C1009      C1123   1.489       .  S
C1009      C1010   1.393       .  A
C1010      H1014   1.083       .  S
C1011      C1140   1.451       .  S
C1012      H1015   1.078       .  S
N1016      C1020   1.353       .  A
N1016      C1143   1.420       .  S
C1017      C1052   1.475       .  S
C1017      C1018   1.377       .  A
C1018      H1021   1.080       .  S
C1019      C1020   1.378       .  A
C1019      H1022   1.070       .  S
N1023      C1027   1.373       .  A
N1023      C1188   1.375       .  A
N1023      C1120   1.453       .  S
C1024      C1057   1.485       .  S
C1024      C1025   1.377       .  A
C1024      N1187   1.375       .  A
C1025      C1190   1.364       .  A
C1025      H1028   1.082       .  S
C1026      C1189   1.364       .  A
C1026      C1027   1.372       .  A
C1026      H1029   1.074       .  S
N1030      C1198   1.367   1_554  A
N1030      C1297   1.443       .  S
C1031      C1056   1.488       .  S
C1031      C1032   1.382       .  A
C1032      H1035   1.083       .  S
C1033      C1034   1.383       .  A
C1033      H1036   1.083       .  S
C1034      N1194   1.367       .  A
O1037      C1052   1.262       .  A
O1037     Al1045   1.936       .  S
C1038      O1048   1.261       .  A
C1038      O1039   1.256       .  A
C1038      C1079   1.479       .  S
O1039     Al1041   1.869       .  S
O1040      C1042   1.265       .  A
O1040     Al1041   1.948       .  S
Al1041     O1049   1.964       .  S
Al1041     O1051   1.860       .  S
Al1041     O1050   1.786       .  S
C1042      O1055   1.263       .  A
C1042      C1072   1.483       .  S
O1043      C1053   1.265       .  A
O1043     Al1045   1.950       .  S
O1044      C1057   1.265       .  A
O1044     Al1054   1.951       .  S
Al1045     O1058   1.914       .  S
Al1045     O1055   1.883       .  S
Al1045     O1050   1.789       .  S
O1046      C1053   1.264       .  A
O1046     Al1054   1.886       .  S
O1047      C1056   1.264       .  A
O1047     Al1054   1.876       .  S
O1048     Al1054   1.943       .  S
O1049      C1056   1.269       .  A
O1050     Al1054   1.782       .  S
O1051      C1052   1.256       .  A
C1053      C1086   1.475       .  S
C1057      O1058   1.266       .  A
C1059      C1093   1.482       .  S
C1059      C1060   1.405       .  A
C1060      H1065   1.084       .  S
C1061      C1100   1.495       .  S
C1062      C1063   1.409   1_455  A
C1062      H1066   1.082       .  S
C1063      C1110   1.483       .  S
C1063      C1064   1.401   1_565  A
C1064      H1067   1.085       .  S
N1068      C1072   1.366   1_545  A
N1068      C1103   1.440       .  S
C1069      C1070   1.384       .  A
C1070      H1073   1.083       .  S
C1071      C1072   1.381   1_545  A
C1071      H1074   1.083   1_545  S
N1075      C1079   1.363       .  A
N1075      C1090   1.432       .  S
C1076      C1077   1.386       .  A
C1077      H1080   1.083       .  S
C1078      C1079   1.378       .  A
C1078      H1081   1.082       .  S
N1082      C1086   1.368       .  A
N1082      C1083   1.362       .  A
N1082      C1113   1.440       .  S
C1083      C1084   1.385       .  A
C1084      C1085   1.358       .  A
C1084      H1087   1.083       .  S
C1085      C1086   1.378       .  A
C1085      H1088   1.083       .  S
C1089      C1090   1.399       .  A
C1089      C1094   1.398       .  A
C1089      H1096   1.083       .  S
C1091      C1092   1.399       .  A
C1091     Br1098   1.915       .  S
C1092      H1097   1.082       .  S
C1093      C1094   1.410       .  A
C1094     Br1095   1.911       .  S
C1099      C1104   1.400       .  A
C1099      H1106   1.083       .  S
C1100      C1101   1.417   1_545  A
C1101      C1102   1.407       .  A
C1101     Br1108   1.919       .  S
C1102      C1103   1.402   1_565  A
C1102      H1107   1.083       .  S
C1104     Br1105   1.917       .  S
C1109      C1110   1.406       .  A
C1109      C1114   1.403       .  A
C1109      H1116   1.084       .  S
C1110      C1111   1.409       .  A
C1111      C1112   1.401       .  A
C1111     Br1118   1.919       .  S
C1112      C1113   1.403       .  A
C1112      H1117   1.082       .  S
C1113      C1114   1.409       .  A
C1114     Br1115   1.917       .  S
C1119      C1120   1.404       .  A
C1119      C1124   1.374       .  A
C1119      H1126   1.064       .  S
C1120      C1285   1.415       .  A
C1121      C1284   1.415       .  A
C1121      C1286   1.412       .  A
C1121     Br1128   1.911       .  S
C1122      C1285   1.412       .  A
C1122      C1123   1.416       .  A
C1122      H1291   1.080       .  S
C1123      C1124   1.389       .  A
C1124     Br1125   1.921       .  S
H1127      C1286   1.080       .  S
C1129      C1134   1.406   1_556  A
C1129      H1136   1.074       .  S
C1130      C1131   1.418       .  A
C1131      C1132   1.395       .  A
C1131     Br1138   1.926       .  S
C1132      C1133   1.394       .  A
C1132      H1137   1.075       .  S
C1133      N1194   1.443       .  S
C1134     Br1135   1.913   1_554  S
C1139      C1144   1.389       .  A
C1139      H1146   1.084       .  S
C1140      C1305   1.401       .  A
C1141      C1304   1.401       .  A
C1141      C1142   1.391       .  A
C1141     Br1148   1.917       .  S
C1142      C1307   1.401   1_554  A
C1142      H1147   1.083       .  S
C1143      C1306   1.401       .  A
C1144     Br1145   1.918       .  S
O1149      C1164   1.273       .  A
O1149     Al1157   1.945       .  S
C1150      O1160   1.271       .  A
C1150      O1151   1.257       .  A
C1150      C1198   1.491       .  S
O1151     Al1153   1.871       .  S
O1152      C1154   1.268       .  A
O1152     Al1153   1.972       .  S
Al1153     O1161   1.961       .  S
Al1153     O1163   1.899       .  S
Al1153     O1162   1.775       .  S
C1154      O1167   1.248       .  A
C1154      C1184   1.483       .  S
O1155      C1165   1.268       .  A
O1155     Al1157   1.913       .  S
O1156      C1169   1.267       .  A
O1156     Al1166   1.969       .  S
Al1157     O1170   1.865       .  S
Al1157     O1167   1.866       .  S
Al1157     O1162   1.781       .  S
O1158      C1165   1.265       .  A
O1158     Al1166   1.930       .  S
O1159      C1168   1.257       .  A
O1159     Al1166   1.862       .  S
O1160     Al1166   1.954       .  S
O1161      C1168   1.271       .  A
O1162     Al1166   1.785       .  S
O1163      C1164   1.267       .  A
C1164      C1233   1.483       .  S
C1165      C1191   1.495       .  S
C1168      C1240   1.487       .  S
C1169      O1170   1.251       .  A
C1169      C1247   1.480       .  S
C1171      C1294   1.518       .  S
C1171      C1176   1.402       .  A
C1172      H1177   1.073       .  S
C1173      C1287   1.489       .  S
C1173      C1174   1.393       .  A
C1174      H1178   1.083       .  S
C1175      C1304   1.451       .  S
C1176      H1179   1.078       .  S
N1180      C1184   1.353       .  A
N1180      C1307   1.420       .  S
C1181      C1216   1.475       .  S
C1181      C1182   1.377       .  A
C1182      H1185   1.080       .  S
C1183      C1184   1.378       .  A
C1183      H1186   1.070       .  S
N1187      C1191   1.373   1_554  A
N1187      C1284   1.453   1_554  S
C1188      C1221   1.485       .  S
C1188      C1189   1.377       .  A
C1189      H1192   1.082       .  S
C1190      C1191   1.372   1_554  A
C1190      H1193   1.074       .  S
C1195      C1220   1.488       .  S
C1195      C1196   1.382       .  A
C1196      H1199   1.083       .  S
C1197      C1198   1.383   1_554  A
C1197      H1200   1.083   1_554  S
O1201      C1216   1.262       .  A
O1201     Al1209   1.936       .  S
C1202      O1212   1.261       .  A
C1202      O1203   1.256       .  A
C1202      C1243   1.479       .  S
O1203     Al1205   1.869       .  S
O1204      C1206   1.265       .  A
O1204     Al1205   1.948       .  S
Al1205     O1213   1.964       .  S
Al1205     O1215   1.860       .  S
Al1205     O1214   1.786       .  S
C1206      O1219   1.263       .  A
C1206      C1236   1.483       .  S
O1207      C1217   1.265       .  A
O1207     Al1209   1.950       .  S
O1208      C1221   1.265       .  A
O1208     Al1218   1.951       .  S
Al1209     O1222   1.914       .  S
Al1209     O1219   1.883       .  S
Al1209     O1214   1.789       .  S
O1210      C1217   1.264       .  A
O1210     Al1218   1.886       .  S
O1211      C1220   1.264       .  A
O1211     Al1218   1.876       .  S
O1212     Al1218   1.943       .  S
O1213      C1220   1.269       .  A
O1214     Al1218   1.782       .  S
O1215      C1216   1.256       .  A
C1217      C1250   1.475       .  S
C1221      O1222   1.266       .  A
C1223      C1257   1.482       .  S
C1223      C1224   1.405       .  A
C1224      H1229   1.084       .  S
C1225      C1264   1.495       .  S
C1226      C1227   1.409   1_455  A
C1226      H1230   1.082       .  S
C1227      C1274   1.483       .  S
C1227      C1228   1.401   1_565  A
C1228      H1231   1.085       .  S
N1232      C1236   1.366   1_545  A
N1232      C1267   1.440       .  S
C1233      C1234   1.384       .  A
C1234      H1237   1.083       .  S
C1235      C1236   1.381   1_545  A
C1235      H1238   1.083   1_545  S
N1239      C1243   1.363       .  A
N1239      C1254   1.432       .  S
C1240      C1241   1.386       .  A
C1241      H1244   1.083       .  S
C1242      C1243   1.378       .  A
C1242      H1245   1.082       .  S
N1246      C1250   1.368       .  A
N1246      C1247   1.362       .  A
N1246      C1277   1.440       .  S
C1247      C1248   1.385       .  A
C1248      C1249   1.358       .  A
C1248      H1251   1.083       .  S
C1249      C1250   1.378       .  A
C1249      H1252   1.083       .  S
C1253      C1254   1.399       .  A
C1253      C1258   1.398       .  A
C1253      H1260   1.083       .  S
C1255      C1256   1.399       .  A
C1255     Br1262   1.915       .  S
C1256      H1261   1.082       .  S
C1257      C1258   1.410       .  A
C1258     Br1259   1.911       .  S
C1263      C1268   1.400       .  A
C1263      H1270   1.083       .  S
C1264      C1265   1.417   1_545  A
C1265      C1266   1.407       .  A
C1265     Br1272   1.919       .  S
C1266      C1267   1.402   1_565  A
C1266      H1271   1.083       .  S
C1268     Br1269   1.917       .  S
C1273      C1274   1.406       .  A
C1273      C1278   1.403       .  A
C1273      H1280   1.084       .  S
C1274      C1275   1.409       .  A
C1275      C1276   1.401       .  A
C1275     Br1282   1.919       .  S
C1276      C1277   1.403       .  A
C1276      H1281   1.082       .  S
C1277      C1278   1.409       .  A
C1278     Br1279   1.917       .  S
C1283      C1284   1.404       .  A
C1283      C1288   1.374       .  A
C1283      H1290   1.064       .  S
C1285     Br1292   1.911       .  S
C1286      C1287   1.416       .  A
C1287      C1288   1.389       .  A
C1288     Br1289   1.921       .  S
C1293      C1298   1.406       .  A
C1293      H1300   1.074       .  S
C1294      C1295   1.418       .  A
C1295      C1296   1.395       .  A
C1295     Br1302   1.926   1_554  S
C1296      C1297   1.394       .  A
C1296      H1301   1.075       .  S
C1298     Br1299   1.913       .  S
C1303      C1308   1.389       .  A
C1303      H1310   1.084       .  S
C1305      C1306   1.391       .  A
C1305     Br1312   1.917       .  S
C1306      H1311   1.083       .  S
C1308     Br1309   1.918       .  S
