geometry optimzed in LAMMPS
_audit_creation_date              2020-11-30 
_audit_creation_method            'lammps2cif' 
_symmetry_space_group_name_H-M    'P1' 
_symmetry_Int_Tables_number       1 
_symmetry_cell_setting            triclinic 
loop_ 
_symmetry_equiv_pos_as_xyz 
  x,y,z 
_cell_length_a                    37.36562866060436 
_cell_length_b                    38.004161609245976 
_cell_length_c                    41.40925206861656 
_cell_angle_alpha                 89.70062874519903 
_cell_angle_beta                  89.80057468081095 
_cell_angle_gamma                 119.66967223655985 
loop_ 
_atom_site_label 
_atom_site_type_symbol 
_atom_site_fract_x 
_atom_site_fract_y 
_atom_site_fract_z 
_atom_site_charge 
C1          C  0.99604972  0.03680913  0.99999661     0.03230
C2          C  0.03398641  0.03724467  0.00060047    -0.12920
C3          C  0.03518978  0.00083814  0.99937245     0.00730
C4          C  0.49804115  0.46396813  0.99757962    -0.11440
C5          C  0.46005074  0.46312891  0.99687325     0.03230
C6          C  0.45921284  0.49965376  0.99800231    -0.10860
H7          H  0.06249602  0.06584519  0.00211021     0.08820
H8          H  0.49878677  0.43582502  0.99695642     0.06350
H9          H  0.42995375  0.49914077  0.99763315     0.06200
C10         C  0.16318512  0.37033853  0.66524680     0.03230
C11         C  0.19996991  0.36903429  0.66776393    -0.12920
C12         C  0.19980441  0.33203581  0.66656288     0.00730
C13         C  0.16223082  0.29589104  0.66298396    -0.11440
C14         C  0.12510781  0.29663610  0.66052269     0.03230
C15         C  0.12576170  0.33399312  0.66161766    -0.10860
H16         H  0.22892445  0.39700591  0.67039163     0.08820
H17         H  0.16185236  0.26720652  0.66212135     0.06350
H18         H  0.09719907  0.33472064  0.65990049     0.06200
C19         C  0.36890337  0.16736878  0.33297838     0.03230
C20         C  0.36776628  0.20362447  0.33240803    -0.12920
C21         C  0.33013549  0.20338918  0.33188106     0.00730
C22         C  0.29306803  0.16616555  0.33146924    -0.11440
C23         C  0.29356562  0.12939401  0.33172183     0.03230
C24         C  0.33170903  0.13022459  0.33260455    -0.10860
H25         H  0.39641150  0.23223221  0.33266759     0.08820
H26         H  0.26388386  0.16579385  0.33108351     0.06350
H27         H  0.33243859  0.10207104  0.33301813     0.06200
C28         C  0.37743879  0.35823018  0.97151084     0.03230
C29         C  0.41476277  0.39502487  0.97252222    -0.12920
C30         C  0.42118280  0.42393126  0.99619441     0.00730
C31         C  0.39098396  0.41486162  0.02006053    -0.11440
C32         C  0.35618605  0.37611469  0.02213107     0.03230
C33         C  0.34914384  0.34870081  0.99706047    -0.10860
H34         H  0.43882949  0.40133502  0.95512598     0.08820
H35         H  0.39533071  0.43766644  0.03746230     0.06350
H36         H  0.32148465  0.31932182  0.99756581     0.06200
C37         C  0.28345396  0.30866765  0.69229123     0.03230
C38         C  0.31315488  0.32954280  0.66826103    -0.12920
C39         C  0.30770608  0.35368629  0.64529006     0.00730
C40         C  0.27076837  0.35504624  0.64567047    -0.11440
C41         C  0.23919625  0.33157187  0.66784480     0.03230
C42         C  0.24558827  0.30812414  0.69104595    -0.10860
H43         H  0.34110923  0.32761734  0.66793491     0.08820
H44         H  0.26608854  0.37368247  0.62819032     0.06350
H45         H  0.22134676  0.28988225  0.70815276     0.06200
C46         C  0.30945867  0.28857978  0.30960580     0.03230
C47         C  0.30812880  0.25104597  0.30939130    -0.12920
C48         C  0.33003459  0.24229869  0.33253179     0.00730
C49         C  0.35339819  0.27159526  0.35572528    -0.11440
C50         C  0.35306012  0.30842289  0.35722506     0.03230
C51         C  0.32935863  0.31561317  0.33479590    -0.10860
H52         H  0.29082809  0.22909467  0.29094838     0.08820
H53         H  0.37157198  0.26543694  0.37277360     0.06350
H54         H  0.32751964  0.34309113  0.33612563     0.06200
C55         C  0.12103157  0.48104347  0.02537711     0.03230
C56         C  0.08341702  0.48107663  0.02499017    -0.12920
C57         C  0.07485519  0.50102590  0.99992488     0.00730
C58         C  0.10396998  0.01991491  0.97487916    -0.11440
C59         C  0.14086771  0.01855799  0.97478458     0.03230
C60         C  0.14898316  0.49916594  0.99990640    -0.10860
H61         H  0.06086267  0.46556400  0.04395711     0.08820
H62         H  0.09779541  0.03537340  0.95548683     0.06350
H63         H  0.17781025  0.49875329  0.99992958     0.06200
C64         C  0.45862136  0.15623642  0.36354582     0.03230
C65         C  0.41939901  0.15281900  0.36119471    -0.12920
C66         C  0.40934224  0.16908950  0.33451652     0.00730
C67         C  0.43889588  0.18898201  0.31007363    -0.11440
C68         C  0.97790198  0.19222715  0.31214105     0.03230
C69         C  0.98744054  0.17549246  0.33865552    -0.10860
H70         H  0.39668074  0.13733245  0.38008947     0.08820
H71         H  0.43156339  0.20189117  0.28945558     0.06350
H72         H  0.01714461  0.17697754  0.33967662     0.06200
C73         C  0.21049497  0.52486652  0.30525346     0.03230
C74         C  0.18207041  0.51414557  0.33052303    -0.12920
C75         C  0.18815283  0.04148513  0.35517795     0.00730
C76         C  0.22456175  0.07936919  0.35560830    -0.11440
C77         C  0.25434263  0.09014322  0.33091611     0.03230
C78         C  0.24660682  0.06309842  0.30536227    -0.10860
H79         H  0.15507928  0.48421320  0.33102130     0.08820
H80         H  0.22980898  0.10017250  0.37517286     0.06350
H81         H  0.26850820  0.07178189  0.28560608     0.06200
O82         O  0.09049181  0.28443694  0.13975963    -0.81690
C83         C  0.22988690  0.33109803  0.21121931     0.97660
O84         O  0.19488698  0.30120900  0.20694330    -0.70810
O85         O  0.11699422  0.25946219  0.19428275    -0.74400
Al86       Al  0.16706199  0.28739869  0.16813534     1.48980
C87         C  0.09826849  0.27346390  0.21074048     0.92920
O88         O  0.14099041  0.38494113  0.18998469    -0.80620
O89         O  0.19584602  0.40879775  0.13571405    -0.74180
Al90       Al  0.12051061  0.33477356  0.16479160     1.90120
O91         O  0.20387056  0.39903113  0.20077371    -0.73250
O92         O  0.23138317  0.36500452  0.12587130    -0.73100
O93         O  0.24457897  0.36110415  0.19175613    -0.78760
O94         O  0.21729249  0.30450939  0.14249025    -0.76960
O95         O  0.16753483  0.33410490  0.16541157    -1.13100
O96         O  0.13893983  0.26960320  0.12984184    -0.72290
C97         C  0.10354806  0.26409339  0.12427621     0.98430
C98         C  0.17376934  0.40410419  0.20642469     0.94820
Al99       Al  0.21516453  0.37991330  0.16358594     1.55560
O100        O  0.10337752  0.30794825  0.20432810    -0.76910
C101        C  0.23614918  0.33468793  0.12357502     0.98990
C102        C  0.16328217  0.39569316  0.11908686     0.93870
O103        O  0.13252370  0.36184521  0.12517652    -0.82230
C104        C  0.47836134  0.12435927  0.97815577     0.03230
C105        C  0.49909193  0.15091734  0.00334652    -0.12920
C106        C  0.01535481  0.13922257  0.02889585     0.00730
C107        C  0.01190092  0.10066961  0.02853413    -0.11440
C108        C  0.49481404  0.07515773  0.00187206     0.03230
C109        C  0.47706290  0.08670769  0.97702904    -0.10860
H110        H  0.50248127  0.18093316  0.00308834     0.08820
H111        H  0.02239922  0.09034305  0.04885098     0.06350
H112        H  0.46250445  0.06661236  0.95687233     0.06200
C113        C  0.15636101  0.46277673  0.63920637     0.03230
C114        C  0.17541997  0.98860191  0.66513734    -0.12920
C115        C  0.18837590  0.97545692  0.69206408     0.00730
C116        C  0.18189912  0.43569799  0.69266487    -0.11440
C117        C  0.16470641  0.41007778  0.66601105     0.03230
C118        C  0.15103572  0.42347685  0.63959571    -0.10950
H119        H  0.17924433  0.01880336  0.66464359     0.08820
H120        H  0.18975906  0.42432204  0.71385163     0.06350
H121        H  0.13621877  0.40343902  0.61945193     0.06200
C122        C  0.03969811  0.19445974  0.63169279     0.03230
C123        C  0.07650307  0.23203090  0.63214519    -0.12920
C124        C  0.08545853  0.25821021  0.65851562     0.00730
C125        C  0.05690654  0.24698580  0.68390404    -0.11440
C126        C  0.51877171  0.21110543  0.68245389     0.03230
C127        C  0.51067827  0.18484257  0.65649754    -0.10860
H128        H  0.09823894  0.24076683  0.61230063     0.08820
H129        H  0.06471851  0.26601087  0.70500544     0.06350
H130        H  0.48187628  0.15642163  0.65582416     0.06200
O131        O  0.28744470  0.09027771  0.86139106    -0.81690
C132        C  0.32537677  0.22619358  0.78921460     0.97660
O133        O  0.29591785  0.19126032  0.79467237    -0.70810
O134        O  0.25670358  0.11363102  0.80903250    -0.74400
Al135      Al  0.28542352  0.16397415  0.83417535     1.48980
C136        C  0.27133156  0.09606280  0.79180329     0.92920
O137        O  0.38637467  0.14219691  0.80638932    -0.80620
O138        O  0.41196807  0.19679171  0.85968337    -0.74180
Al139      Al  0.33673308  0.12122841  0.83411808     1.90120
O140        O  0.39665139  0.20249340  0.79481548    -0.73250
O141        O  0.36688551  0.23031639  0.87177697    -0.73100
O142        O  0.35740833  0.24115823  0.80667917    -0.78760
O143        O  0.30342266  0.21386407  0.85926150    -0.76960
O144        O  0.33400184  0.16640823  0.83410661    -1.13100
O145        O  0.27052031  0.13630045  0.87359459    -0.72290
C146        C  0.26734624  0.10221988  0.87869343     0.98430
C147        C  0.40262138  0.17360858  0.78841247     0.94820
Al148      Al  0.37973142  0.21390982  0.83332733     1.55560
O149        O  0.30779560  0.10414979  0.79598668    -0.76910
C150        C  0.33578784  0.23423610  0.87587785     0.98990
C151        C  0.40032314  0.16524537  0.87701903     0.93870
O152        O  0.36625906  0.13413331  0.87242075    -0.82230
O153        O  0.45044781  0.42173720  0.52925308    -0.81690
C154        C  0.99125087  0.05771922  0.45366627     0.97660
O155        O  0.46372852  0.02194920  0.45840713    -0.70810
O156        O  0.42330687  0.44472445  0.47307762    -0.74400
Al157      Al  0.45134610  0.99550132  0.49801285     1.48980
C158        C  0.43747411  0.42472779  0.45845391     0.92920
O159        O  0.05147981  0.47067837  0.47622061    -0.80620
O160        O  0.07737029  0.02669056  0.52548404    -0.74180
Al161      Al  0.50095871  0.45097599  0.50258241     1.90120
O162        O  0.06203357  0.03022188  0.45973087    -0.73250
O163        O  0.03279048  0.06072732  0.53541855    -0.73100
O164        O  0.02392052  0.07199552  0.47047632    -0.78760
O165        O  0.47007119  0.04587744  0.52308103    -0.76960
O166        O  0.99903808  0.99657020  0.49942435    -1.13100
O167        O  0.43344139  0.46850871  0.53758405    -0.72290
C168        C  0.42888978  0.43431130  0.54385547     0.98430
C169        C  0.06839459  0.00091557  0.45691451     0.94820
Al170      Al  0.04544880  0.04368294  0.49779204     1.55560
O171        O  0.47277558  0.43052476  0.46435749    -0.76910
C172        C  0.50245188  0.06578203  0.53992511     0.98990
C173        C  0.06406244  0.99680472  0.54506467     0.93870
O174        O  0.02928272  0.46661736  0.54103892    -0.82230
C175        C  0.46955318  0.16210665  0.72280635    -0.05680
C176        C  0.48732129  0.20062492  0.70817865     0.00250
C177        C  0.47333428  0.22753134  0.71720518    -0.08320
C178        C  0.44707385  0.21748956  0.74396475    -0.05700
C179        C  0.43019755  0.17956429  0.75999789     0.00240
C180        C  0.43952387  0.15023278  0.74747740    -0.08230
C181        C  0.41778570  0.10659331  0.75893590     0.62150
H182        H  0.47936757  0.14118501  0.71459786     0.12840
H183        H  0.43941133  0.23995836  0.75213676     0.12860
C184        C  0.48395939  0.26581439  0.69798444     0.62380
F185        F  0.42660178  0.08237267  0.73937307    -0.22780
F186        F  0.37564271  0.09110236  0.75852255    -0.20110
F187        F  0.43026025  0.10441834  0.78970981    -0.19790
F188        F  0.48344082  0.25874632  0.66518665    -0.19840
F189        F  0.52237668  0.29679731  0.70653010    -0.20160
F190        F  0.45565209  0.27857185  0.70373619    -0.22840
C191        C  0.04371154  0.11178868  0.58379343    -0.05680
C192        C  0.00822535  0.09715951  0.56430739     0.00250
C193        C  0.48288181  0.11504917  0.56743646    -0.08320
C194        C  0.49527919  0.14802950  0.58869505    -0.05700
C195        C  0.03163794  0.16329837  0.60694496     0.00240
C196        C  0.05596733  0.14437616  0.60492089    -0.08230
C197        C  0.09437480  0.15765140  0.62535153     0.62150
H198        H  0.06269924  0.09771030  0.58220538     0.12840
H199        H  0.47638154  0.16209926  0.59158034     0.12860
C200        C  0.44296216  0.09951810  0.54894996     0.62380
F201        F  0.10937546  0.13093526  0.62314287    -0.22780
F202        F  0.08559591  0.15973963  0.65753048    -0.20110
F203        F  0.12528062  0.19512022  0.61497681    -0.19790
F204        F  0.41700059  0.05911729  0.55650289    -0.19840
F205        F  0.45100965  0.10384493  0.51610331    -0.20160
F206        F  0.42257796  0.12046472  0.55663509    -0.22840
C207        C  0.13201351  0.01210143  0.56823340    -0.05680
C208        C  0.08920721  0.49428926  0.57197549     0.00250
C209        C  0.07013235  0.46933974  0.59960462    -0.08320
C210        C  0.09349450  0.45918709  0.61988616    -0.05700
C211        C  0.13554215  0.47457775  0.61481149     0.00240
C212        C  0.15574091  0.00267157  0.58928865    -0.08230
C213        C  0.20166639  0.02299547  0.58267266     0.62150
H214        H  0.14702715  0.03235662  0.54806637     0.12840
H215        H  0.07886953  0.43888795  0.64023668     0.12860
C216        C  0.02515700  0.45290318  0.60814308     0.62380
F217        F  0.20822230  0.01558217  0.55114078    -0.22780
F218        F  0.22191547  0.00953252  0.60274755    -0.20110
F219        F  0.21871548  0.06432469  0.58663888    -0.19790
F220        F  0.00124055  0.41866066  0.59010331    -0.19840
F221        F  0.01411616  0.48213829  0.60221754    -0.20160
F222        F  0.01737055  0.44223631  0.64050633    -0.22840
C223        C  0.18912835  0.02467588  0.73187113    -0.05680
C224        C  0.20855008  0.00395109  0.71922449     0.00250
C225        C  0.24811343  0.01378547  0.73049267    -0.08320
C226        C  0.26565662  0.04250373  0.75501512    -0.05700
C227        C  0.24708290  0.06430894  0.76728067     0.00240
C228        C  0.20804530  0.05543159  0.75518527    -0.08230
C229        C  0.18678426  0.07868560  0.76581840     0.62150
H230        H  0.15905989  0.01702960  0.72268457     0.12840
H231        H  0.29491297  0.04821279  0.76458047     0.12860
C232        C  0.27318973  0.49578002  0.71632785     0.62380
F233        F  0.15049058  0.06675481  0.74924211    -0.22780
F234        F  0.21235306  0.11961519  0.75998710    -0.20110
F235        F  0.17729107  0.07213914  0.79837691    -0.19790
F236        F  0.27035452  0.99416135  0.68298142    -0.19840
F237        F  0.25929696  0.45732204  0.72871053    -0.20160
F238        F  0.31454433  0.51880955  0.72381504    -0.22840
C239        C  0.47138544  0.13735291  0.92063225    -0.05680
C240        C  0.45918569  0.13699619  0.95272513     0.00250
C241        C  0.42988628  0.14946659  0.95985725    -0.08320
C242        C  0.41528521  0.16355403  0.93447245    -0.05700
C243        C  0.42639976  0.16250456  0.90233215     0.00240
C244        C  0.45415202  0.14842161  0.89517656    -0.08230
C245        C  0.46137470  0.14043451  0.86075305     0.62150
H246        H  0.49322851  0.12715386  0.91555753     0.12840
H247        H  0.39272845  0.17287022  0.93943717     0.12860
C248        C  0.41194601  0.14652800  0.99346861     0.62380
F249        F  0.49136940  0.12926734  0.85841028    -0.22780
F250        F  0.47341728  0.17465237  0.84185335    -0.20110
F251        F  0.42490756  0.10903686  0.84933848    -0.19790
F252        F  0.43472604  0.18292983  0.00920499    -0.19840
F253        F  0.41163009  0.11574243  0.01166637    -0.20160
F254        F  0.37154689  0.13833233  0.99154382    -0.22840
C255        C  0.01689744  0.18729294  0.06996731    -0.05680
C256        C  0.03712386  0.16872350  0.05494825     0.00250
C257        C  0.07883252  0.18222582  0.06212802    -0.08320
C258        C  0.09800048  0.21246069  0.08530663    -0.05700
C259        C  0.07850016  0.23203391  0.10016442     0.00240
C260        C  0.03700039  0.21933126  0.09204776    -0.08230
C261        C  0.01389754  0.23927381  0.10601758     0.62150
H262        H  0.98513434  0.17685939  0.06359654     0.12840
H263        H  0.12898798  0.22069797  0.09202895     0.12860
C264        C  0.10397138  0.16618469  0.04488092     0.62380
F265        F  0.97436732  0.22267689  0.09390920    -0.22780
F266        F  0.03449463  0.28010376  0.09826472    -0.20110
F267        F  0.01080062  0.23429838  0.13920538    -0.19790
F268        F  0.09749867  0.16455720  0.01191482    -0.19840
F269        F  0.09335818  0.12810178  0.05648490    -0.20160
F270        F  0.14574893  0.19066142  0.04969363    -0.22840
C271        C  0.16720278  0.48317160  0.25996071    -0.05680
C272        C  0.20207574  0.49504697  0.27942340     0.00250
C273        C  0.22520639  0.47509315  0.27649532    -0.08320
C274        C  0.21404083  0.44551152  0.25269626    -0.05700
C275        C  0.17970419  0.43383036  0.23233375     0.00240
C276        C  0.15518670  0.45248207  0.23656148    -0.08230
C277        C  0.11679368  0.44046604  0.21678211     0.62150
H278        H  0.14920070  0.49807395  0.26356379     0.12840
H279        H  0.23287694  0.43145352  0.24981523     0.12860
C280        C  0.26084683  0.48401180  0.29897858     0.62380
F281        F  0.09793900  0.46271892  0.22493013    -0.22780
F282        F  0.08868613  0.40000307  0.22217893    -0.20110
F283        F  0.12690905  0.44694344  0.18432913    -0.19790
F284        F  0.24818746  0.48094119  0.33081019    -0.19840
F285        F  0.29328284  0.02269149  0.29316746    -0.20160
F286        F  0.27535950  0.45714216  0.29472356    -0.22840
C287        C  0.16604557  0.02271896  0.41218155    -0.05680
C288        C  0.15632832  0.02921027  0.38080859     0.00250
C289        C  0.11655273  0.02345265  0.37429551    -0.08320
C290        C  0.08743478  0.01038897  0.39955393    -0.05700
C291        C  0.09721374  0.00434464  0.43103213     0.00240
C292        C  0.13733013  0.01135992  0.43771966    -0.08230
C293        C  0.15074061  0.01061668  0.47206429     0.62150
H294        H  0.19682744  0.02792671  0.41667504     0.12840
H295        H  0.05708338  0.00648153  0.39527802     0.12860
C296        C  0.10558998  0.03328477  0.34137128     0.62380
F297        F  0.19080432  0.01777402  0.47345953    -0.22780
F298        F  0.12566053  0.47399710  0.48650330    -0.20110
F299        F  0.14865078  0.04052878  0.48936928    -0.19790
F300        F  0.10326159  0.50528665  0.31883594    -0.19840
F301        F  0.13506649  0.07191241  0.33182970    -0.20160
F302        F  0.06782985  0.03183016  0.34190939    -0.22840
C303        C  0.01461908  0.18963913  0.26310286    -0.05680
C304        C  0.00912775  0.21307012  0.28657525     0.00250
C305        C  0.03441245  0.25554309  0.28625260    -0.08320
C306        C  0.06437023  0.27344446  0.26188950    -0.05700
C307        C  0.06940277  0.25041405  0.23756793     0.00240
C308        C  0.04430199  0.20759391  0.23825265    -0.08230
C309        C  0.04783651  0.18097687  0.21267316     0.62150
H310        H  0.99507196  0.15705632  0.26433059     0.12840
H311        H  0.08387039  0.30605552  0.26140948     0.12860
C312        C  0.02958937  0.28176435  0.31154259     0.62380
F313        F  0.01858786  0.14059338  0.21695728    -0.22780
F314        F  0.08628100  0.18412928  0.21419614    -0.20110
F315        F  0.04222503  0.19283736  0.18234487    -0.19790
F316        F  0.03487619  0.27010335  0.34201770    -0.19840
F317        F  0.99071759  0.27752607  0.30958315    -0.20160
F318        F  0.05815725  0.32238571  0.30739837    -0.22840
C319        C  0.44036249  0.09213276  0.38990640    -0.05680
C320        C  0.46697164  0.13377341  0.38905543     0.00250
C321        C  0.00192117  0.15094073  0.40946140    -0.08320
C322        C  0.00977642  0.12501212  0.42901673    -0.05700
C323        C  0.48300935  0.08286448  0.42992832     0.00240
C324        C  0.44725798  0.06621687  0.40973283    -0.08230
C325        C  0.41698279  0.02120767  0.40707581     0.62150
H326        H  0.41422123  0.07980309  0.37379963     0.12840
H327        H  0.03656509  0.13814650  0.44448978     0.12860
C328        C  0.03107478  0.19611364  0.41225952     0.62380
F329        F  0.38815237  0.01226750  0.38298544    -0.22780
F330        F  0.39544912  0.00625793  0.43573914    -0.20110
F331        F  0.43874901  0.00194286  0.39943935    -0.19790
F332        F  0.01592614  0.21897095  0.39798118    -0.19840
F333        F  0.06836259  0.20576578  0.39798394    -0.20160
F334        F  0.03756429  0.20662457  0.44452842    -0.22840
C335        C  0.13458841  0.42633631  0.04075153    -0.05680
C336        C  0.13122324  0.45977798  0.05062019     0.00250
C337        C  0.14314557  0.47501982  0.08228260    -0.08320
C338        C  0.15655596  0.45486352  0.10352878    -0.05700
C339        C  0.15850268  0.42054613  0.09386170     0.00240
C340        C  0.14836539  0.40659414  0.06177007    -0.08230
C341        C  0.15403401  0.37223745  0.04937691     0.62150
H342        H  0.12672951  0.41612045  0.01607972     0.12840
H343        H  0.16432773  0.46491584  0.12821157     0.12860
C344        C  0.14206339  0.51243444  0.09344449     0.62380
F345        F  0.14659219  0.36626893  0.01656713    -0.22780
F346        F  0.12731922  0.33653808  0.06515099    -0.20110
F347        F  0.19426340  0.38151886  0.05472417    -0.19790
F348        F  0.10197169  0.50511028  0.09344665    -0.19840
F349        F  0.16579629  0.04462299  0.07296541    -0.20160
F350        F  0.15742383  0.02345872  0.12443281    -0.22840
C351        C  0.23708557  0.09736922  0.93245046    -0.05680
C352        C  0.23819226  0.07693602  0.90462883     0.00250
C353        C  0.20732016  0.03601735  0.90035122    -0.08320
C354        C  0.17525254  0.01785747  0.92349991    -0.05700
C355        C  0.17308134  0.03972478  0.94997198     0.00240
C356        C  0.20452524  0.07994717  0.95480675    -0.08230
C357        C  0.20302587  0.10432363  0.98329089     0.62150
H358        H  0.26186109  0.12765696  0.93617570     0.12840
H359        H  0.15137057  0.48655684  0.92104723     0.12860
C360        C  0.20787617  0.01196862  0.87145186     0.62380
F361        F  0.23624490  0.14315966  0.98346273    -0.22780
F362        F  0.20328183  0.08573480  0.01198689    -0.20110
F363        F  0.16753734  0.10712405  0.98183634    -0.19790
F364        F  0.24358232  0.00950743  0.87168654    -0.19840
F365        F  0.20627843  0.03069633  0.84322119    -0.20160
F366        F  0.17470612  0.47295571  0.87181116    -0.22840
C367        C  0.37628604  0.32521203  0.41421558    -0.05680
C368        C  0.37668109  0.33899415  0.38251917     0.00250
C369        C  0.39939161  0.38138124  0.37607015    -0.08320
C370        C  0.41523830  0.40802345  0.40220711    -0.05700
C371        C  0.41366874  0.39423840  0.43379968     0.00240
C372        C  0.39751868  0.35221224  0.43937859    -0.08230
C373        C  0.40599936  0.33602619  0.47038675     0.62150
H374        H  0.36039402  0.29296096  0.41900868     0.12840
H375        H  0.43285233  0.44006034  0.39745406     0.12860
C376        C  0.41052506  0.39997431  0.34233582     0.62380
F377        F  0.38627530  0.29413323  0.47095867    -0.22780
F378        F  0.39299354  0.34831361  0.49697907    -0.20110
F379        F  0.44783263  0.35027418  0.47289513    -0.19790
F380        F  0.38429355  0.41427587  0.33368447    -0.19840
F381        F  0.40877806  0.37274998  0.31954563    -0.20160
F382        F  0.45048704  0.43215859  0.34180395    -0.22840
C383        C  0.25719455  0.30605771  0.29239927    -0.05680
C384        C  0.29036534  0.30058994  0.28377659     0.00250
C385        C  0.30694468  0.31045471  0.25199899    -0.08320
C386        C  0.28850361  0.32431351  0.22949724    -0.05700
C387        C  0.25398486  0.32769077  0.23774729     0.00240
C388        C  0.23822641  0.31898915  0.26976847    -0.08230
C389        C  0.20137854  0.32306884  0.28003076     0.62150
H390        H  0.24568337  0.29917188  0.31699961     0.12840
H391        H  0.29931394  0.33024241  0.20468366     0.12860
C392        C  0.34357524  0.30606458  0.24169521     0.62380
F393        F  0.19575193  0.31987975  0.31321291    -0.22780
F394        F  0.16591398  0.29301559  0.26608757    -0.20110
F395        F  0.20722067  0.36042343  0.27050450    -0.19790
F396        F  0.33279292  0.26565098  0.24189172    -0.19840
F397        F  0.37601105  0.32701070  0.26257466    -0.20160
F398        F  0.35699653  0.32116111  0.21082421    -0.22840
C399        C  0.32655637  0.37357311  0.58782092    -0.05680
C400        C  0.33966091  0.37573293  0.61990140     0.00250
C401        C  0.38256071  0.39761890  0.62645201    -0.08320
C402        C  0.41041091  0.41162497  0.60033565    -0.05700
C403        C  0.39739063  0.40981593  0.56844609     0.00240
C404        C  0.35465469  0.39296235  0.56233006    -0.08230
C405        C  0.33855733  0.39777993  0.52986223     0.62150
H406        H  0.29385576  0.35761335  0.58294023     0.12840
H407        H  0.44286148  0.42774914  0.60527642     0.12860
C408        C  0.40059125  0.40984670  0.66011920     0.62380
F409        F  0.29593958  0.37726819  0.52896613    -0.22780
F410        F  0.35232958  0.38305033  0.50540246    -0.20110
F411        F  0.35198666  0.43826491  0.52400032    -0.19790
F412        F  0.41644974  0.38549776  0.66987849    -0.19840
F413        F  0.37201548  0.40739477  0.68263026    -0.20160
F414        F  0.43217606  0.44970701  0.65967714    -0.22840
C415        C  0.30218270  0.25731147  0.70861417    -0.05680
C416        C  0.29304697  0.28741688  0.71810782     0.00250
C417        C  0.29837115  0.29985315  0.75087317    -0.08320
C418        C  0.31172645  0.28072634  0.77314196    -0.05700
C419        C  0.31974262  0.24998770  0.76365394     0.00240
C420        C  0.31538553  0.23821120  0.73091130    -0.08230
C421        C  0.32567088  0.20632609  0.71952465     0.62150
H422        H  0.29891502  0.24894655  0.68338317     0.12840
H423        H  0.31452428  0.28853371  0.79849352     0.12860
C424        C  0.29036203  0.33322130  0.76242754     0.62380
F425        F  0.32299666  0.20207552  0.68628784    -0.22780
F426        F  0.29884509  0.16919276  0.73330557    -0.20110
F427        F  0.36545331  0.21738979  0.72837474    -0.19790
F428        F  0.24879650  0.32044939  0.76067532    -0.19840
F429        F  0.31212276  0.36756346  0.74351731    -0.20160
F430        F  0.30234997  0.34360256  0.79416673    -0.22840
C431        C  0.35265426  0.28745289  0.95523055    -0.05680
C432        C  0.36774676  0.32784186  0.94540021     0.00250
C433        C  0.36813046  0.33657785  0.91180351    -0.08320
C434        C  0.35497423  0.30453531  0.88955830    -0.05700
C435        C  0.33955955  0.26441012  0.89983530     0.00240
C436        C  0.33724513  0.25564063  0.93307933    -0.08230
C437        C  0.31548691  0.21236727  0.94485797     0.62150
H438        H  0.35194694  0.28076509  0.98075403     0.12840
H439        H  0.35761881  0.31070098  0.86381908     0.12860
C440        C  0.38188704  0.37893269  0.89895612     0.62380
F441        F  0.31463337  0.20961513  0.97823632    -0.22780
F442        F  0.33467136  0.19195122  0.93295952    -0.20110
F443        F  0.27544267  0.19446044  0.93384839    -0.19790
F444        F  0.42426977  0.40217733  0.90024764    -0.19840
F445        F  0.36415275  0.39701684  0.91683120    -0.20160
F446        F  0.37040910  0.37817091  0.86708711    -0.22840
C447        C  0.28401972  0.34191409  0.04245952    -0.05680
C448        C  0.32631764  0.36367606  0.04973889     0.00250
C449        C  0.33831980  0.36979445  0.08285234    -0.08320
C450        C  0.30753626  0.35796204  0.10678372    -0.05700
C451        C  0.26570114  0.33679874  0.09908254     0.00240
C452        C  0.25374288  0.32658263  0.06677220    -0.08230
C453        C  0.20951542  0.29684595  0.05865016     0.62150
H454        H  0.27464575  0.33625053  0.01745648     0.12840
H455        H  0.31604070  0.36580807  0.13181246     0.12860
C456        C  0.38271635  0.38801682  0.09386400     0.62380
F457        F  0.20363295  0.29029229  0.02575340    -0.22780
F458        F  0.18353708  0.31022901  0.06972567    -0.20110
F459        F  0.19937910  0.26060078  0.07365453    -0.19790
F460        F  0.40164164  0.42978569  0.09312538    -0.19840
F461        F  0.40428244  0.37521458  0.07456645    -0.20160
F462        F  0.38457432  0.37622771  0.12524359    -0.22840
C463        C  0.99592391  0.53681172  0.00002228     0.03230
C464        C  0.03386679  0.53726261  0.00060424    -0.12920
C465        C  0.03508515  0.50086742  0.99936160     0.00730
C466        C  0.49813965  0.96394482  0.99759032    -0.11440
C467        C  0.46015894  0.96312384  0.99686731     0.03230
C468        C  0.45933626  0.99965594  0.99797758    -0.10860
H469        H  0.06237066  0.56586730  0.00211114     0.08820
H470        H  0.49887231  0.93579568  0.99697702     0.06350
H471        H  0.43008192  0.99915207  0.99759547     0.06200
C472        C  0.16314071  0.87029659  0.66522792     0.03230
C473        C  0.19992806  0.86899663  0.66774170    -0.12920
C474        C  0.19977270  0.83200281  0.66652054     0.00730
C475        C  0.16220277  0.79585455  0.66292821    -0.11440
C476        C  0.12507444  0.79659296  0.66047096     0.03230
C477        C  0.12572272  0.83394803  0.66158354    -0.10860
H478        H  0.22887911  0.89696985  0.67037773     0.08820
H479        H  0.16183128  0.76717398  0.66205405     0.06350
H480        H  0.09715742  0.83467100  0.65987031     0.06200
C481        C  0.36884049  0.66715167  0.33284747     0.03230
C482        C  0.36772494  0.70342322  0.33231879    -0.12920
C483        C  0.33009082  0.70318902  0.33184243     0.00730
C484        C  0.29302115  0.66598340  0.33145858    -0.11440
C485        C  0.29350297  0.62921544  0.33168197     0.03230
C486        C  0.33163191  0.63002123  0.33249896    -0.10860
H487        H  0.39637236  0.73202845  0.33257300     0.08820
H488        H  0.26384152  0.66562428  0.33111922     0.06350
H489        H  0.33233965  0.60185618  0.33288094     0.06200
C490        C  0.37749729  0.85825879  0.97149178     0.03230
C491        C  0.41483921  0.89503436  0.97250871    -0.12920
C492        C  0.42127870  0.92394016  0.99618551     0.00730
C493        C  0.39107692  0.91489091  0.02004530    -0.11440
C494        C  0.35625827  0.87615700  0.02211004     0.03230
C495        C  0.34920071  0.84874364  0.99703700    -0.10860
H496        H  0.43890283  0.90133034  0.95511218     0.08820
H497        H  0.39543818  0.93769962  0.03744741     0.06350
H498        H  0.32153063  0.81937324  0.99753784     0.06200
C499        C  0.28349261  0.80871739  0.69223375     0.03230
C500        C  0.31319147  0.82962855  0.66820609    -0.12920
C501        C  0.30770367  0.85375043  0.64523423     0.00730
C502        C  0.27073731  0.85505467  0.64561383    -0.11440
C503        C  0.23917638  0.83155680  0.66778863     0.03230
C504        C  0.24560165  0.80812670  0.69098640    -0.10860
H505        H  0.34117086  0.82774861  0.66788256     0.08820
H506        H  0.26603149  0.87367523  0.62813480     0.06350
H507        H  0.22136764  0.78986616  0.70809274     0.06200
C508        C  0.30919897  0.78826733  0.30973645     0.03230
C509        C  0.30805181  0.75082355  0.30940299    -0.12920
C510        C  0.32994056  0.74205876  0.33254976     0.00730
C511        C  0.35314227  0.77124998  0.35585329    -0.11440
C512        C  0.35260224  0.80796345  0.35748018     0.03230
C513        C  0.32884362  0.81512838  0.33507687    -0.10860
H514        H  0.29088170  0.72894264  0.29088169     0.08820
H515        H  0.37134108  0.76509314  0.37287609     0.06350
H516        H  0.32683629  0.84250933  0.33650855     0.06200
C517        C  0.12114548  0.98104572  0.02541950     0.03230
C518        C  0.08351702  0.98105044  0.02501699    -0.12920
C519        C  0.07495093  0.00098102  0.99993998     0.00730
C520        C  0.10387957  0.51997453  0.97486788    -0.11440
C521        C  0.14076565  0.51859284  0.97475342     0.03230
C522        C  0.14910161  0.99916807  0.99995382    -0.10860
H523        H  0.06096453  0.96554123  0.04398134     0.08820
H524        H  0.09771010  0.53545754  0.95548298     0.06350
H525        H  0.17794550  0.99877735  0.99999050     0.06200
C526        C  0.45835231  0.65542798  0.36308738     0.03230
C527        C  0.41925383  0.65234345  0.36088633    -0.12920
C528        C  0.40924716  0.66879428  0.33430448     0.00730
C529        C  0.43878047  0.68869193  0.30985741    -0.11440
C530        C  0.97769573  0.69171314  0.31180592     0.03230
C531        C  0.98712159  0.67464062  0.33815515    -0.10860
H532        H  0.39658311  0.63699898  0.37983890     0.08820
H533        H  0.43150051  0.70177085  0.28932488     0.06350
H534        H  0.01674337  0.67594143  0.33905435     0.06200
C535        C  0.21061993  0.02499864  0.30524042     0.03230
C536        C  0.18217003  0.01425489  0.33049393    -0.12920
C537        C  0.18808408  0.54140394  0.35519242     0.00730
C538        C  0.22451320  0.57926757  0.35560324    -0.11440
C539        C  0.25426995  0.58999591  0.33090198     0.03230
C540        C  0.24648942  0.56294962  0.30534997    -0.10860
H541        H  0.15516975  0.98432654  0.33096426     0.08820
H542        H  0.22979588  0.60008993  0.37516072     0.06350
H543        H  0.26836686  0.57161605  0.28557765     0.06200
O544        O  0.09057806  0.78447377  0.13975729    -0.81690
C545        C  0.22992046  0.83103108  0.21124249     0.97660
O546        O  0.19493708  0.80113660  0.20691243    -0.70810
O547        O  0.11705768  0.75943324  0.19419257    -0.74400
Al548      Al  0.16714241  0.78740487  0.16808765     1.48980
C549        C  0.09831564  0.77339624  0.21067211     0.92920
O550        O  0.14106962  0.88494283  0.19004076    -0.80620
O551        O  0.19595321  0.90882810  0.13577237    -0.74180
Al552      Al  0.12059957  0.83478951  0.16482071     1.90120
O553        O  0.20394118  0.89902166  0.20083962    -0.73250
O554        O  0.23150909  0.86506446  0.12591617    -0.73100
O555        O  0.24463530  0.86107618  0.19181549    -0.78760
O556        O  0.21738313  0.80453865  0.14246770    -0.76960
O557        O  0.16762460  0.83411978  0.16542557    -1.13100
O558        O  0.13904613  0.76968972  0.12977021    -0.72290
C559        C  0.10363714  0.76415614  0.12423893     0.98430
C560        C  0.17384874  0.90411278  0.20647968     0.94820
Al561      Al  0.21525551  0.87992655  0.16364009     1.55560
O562        O  0.10346608  0.80791506  0.20433637    -0.76910
C563        C  0.23625346  0.83473947  0.12358003     0.98990
C564        C  0.16339116  0.89573381  0.11914293     0.93870
O565        O  0.13261974  0.86189513  0.12522965    -0.82230
C566        C  0.47832621  0.62439933  0.97816635     0.03230
C567        C  0.49909309  0.65097034  0.00334201    -0.12920
C568        C  0.01535085  0.63926871  0.02889122     0.00730
C569        C  0.01184738  0.60069621  0.02854643    -0.11440
C570        C  0.49469769  0.57516026  0.00190548     0.03230
C571        C  0.47695935  0.58671860  0.97706221    -0.10860
H572        H  0.50251180  0.68099821  0.00307338     0.08820
H573        H  0.02236373  0.59037686  0.04885691     0.06350
H574        H  0.46236957  0.56661276  0.95691673     0.06200
C575        C  0.15626499  0.96271494  0.63920080     0.03230
C576        C  0.17550368  0.48865330  0.66514793    -0.12920
C577        C  0.18842152  0.47548924  0.69208284     0.00730
C578        C  0.18186713  0.93566856  0.69264407    -0.11440
C579        C  0.16465394  0.91003526  0.66599842     0.03230
C580        C  0.15095519  0.92342072  0.63959198    -0.10950
H581        H  0.17933696  0.51885847  0.66465575     0.08820
H582        H  0.18975163  0.92430359  0.71382417     0.06350
H583        H  0.13613381  0.90337748  0.61945195     0.06200
C584        C  0.03961620  0.69441114  0.63166098     0.03230
C585        C  0.07644013  0.73197158  0.63210446    -0.12920
C586        C  0.08542011  0.75816443  0.65847146     0.00730
C587        C  0.05687944  0.74695720  0.68386685    -0.11440
C588        C  0.51873337  0.71108904  0.68242773     0.03230
C589        C  0.51061056  0.68481948  0.65647225    -0.10860
H590        H  0.09817087  0.74068618  0.61225800     0.08820
H591        H  0.06470967  0.76598709  0.70496644     0.06350
H592        H  0.48179944  0.65640656  0.65580903     0.06200
O593        O  0.28742586  0.59031032  0.86139436    -0.81690
C594        C  0.32538686  0.72623167  0.78919255     0.97660
O595        O  0.29592427  0.69129993  0.79465359    -0.70810
O596        O  0.25670626  0.61366934  0.80902616    -0.74400
Al597      Al  0.28542342  0.66401301  0.83416343     1.48980
C598        C  0.27133742  0.59609827  0.79180480     0.92920
O599        O  0.38637414  0.64222257  0.80639603    -0.80620
O600        O  0.41196372  0.69681972  0.85967728    -0.74180
Al601      Al  0.33672604  0.62126046  0.83412215     1.90120
O602        O  0.39664996  0.70251533  0.79480859    -0.73250
O603        O  0.36688799  0.73035193  0.87176087    -0.73100
O604        O  0.35741623  0.74119285  0.80666032    -0.78760
O605        O  0.30342533  0.71390277  0.85924458    -0.76960
O606        O  0.33399955  0.66644226  0.83410084    -1.13100
O607        O  0.27050795  0.63633908  0.87358814    -0.72290
C608        C  0.26732163  0.60225347  0.87869046     0.98430
C609        C  0.40262294  0.67363063  0.78841410     0.94820
Al610      Al  0.37973236  0.71394049  0.83331627     1.55560
O611        O  0.30780043  0.60418662  0.79599102    -0.76910
C612        C  0.33579021  0.73427099  0.87586131     0.98990
C613        C  0.40031304  0.66527615  0.87701788     0.93870
O614        O  0.36624458  0.63416782  0.87242555    -0.82230
O615        O  0.45039257  0.92195426  0.52923418    -0.81690
C616        C  0.99077107  0.55730288  0.45385672     0.97660
O617        O  0.46354179  0.52143754  0.45852716    -0.70810
O618        O  0.42323557  0.94500145  0.47291878    -0.74400
Al619      Al  0.45128761  0.49519635  0.49816471     1.48980
C620        C  0.43715134  0.92464940  0.45850110     0.92920
O621        O  0.05126993  0.97055779  0.47607161    -0.80620
O622        O  0.07736557  0.52671823  0.52554585    -0.74180
Al623      Al  0.50081538  0.95101512  0.50250462     1.90120
O624        O  0.06192138  0.53019399  0.45977777    -0.73250
O625        O  0.03265783  0.56059123  0.53550989    -0.73100
O626        O  0.02353169  0.57175226  0.47058593    -0.78760
O627        O  0.46989646  0.54561068  0.52319656    -0.76960
O628        O  0.99903753  0.49643638  0.49955223    -1.13100
O629        O  0.43335328  0.96872927  0.53741594    -0.72290
C630        C  0.42883980  0.93456289  0.54378095     0.98430
C631        C  0.06845866  0.50099170  0.45701196     0.94820
Al632      Al  0.04532832  0.54360852  0.49786830     1.55560
O633        O  0.47245789  0.93041430  0.46435459    -0.76910
C634        C  0.50228302  0.56558094  0.54002621     0.98990
C635        C  0.06410553  0.49683889  0.54514253     0.93870
O636        O  0.02921562  0.96663989  0.54094136    -0.82230
C637        C  0.46953093  0.66210708  0.72279644    -0.05680
C638        C  0.48730283  0.70062432  0.70816636     0.00250
C639        C  0.47333896  0.72754490  0.71720498    -0.08320
C640        C  0.44709107  0.71751194  0.74397201    -0.05700
C641        C  0.43020249  0.67958309  0.76000177     0.00240
C642        C  0.43951443  0.65024386  0.74747673    -0.08230
C643        C  0.41777214  0.60660671  0.75894017     0.62150
H644        H  0.47933093  0.64117710  0.71458106     0.12840
H645        H  0.43944567  0.73999002  0.75215114     0.12860
C646        C  0.48397492  0.76583485  0.69798985     0.62380
F647        F  0.42658484  0.58237913  0.73938291    -0.22780
F648        F  0.37563034  0.59112159  0.75852484    -0.20110
F649        F  0.43024408  0.60443595  0.78971616    -0.19790
F650        F  0.48344383  0.75877091  0.66519037    -0.19840
F651        F  0.52240077  0.79680557  0.70653196    -0.20160
F652        F  0.45568232  0.77860793  0.70375278    -0.22840
C653        C  0.04351607  0.61159451  0.58389606    -0.05680
C654        C  0.00804575  0.59697348  0.56439130     0.00250
C655        C  0.48274915  0.61491946  0.56745965    -0.08320
C656        C  0.49517523  0.64794307  0.58868053    -0.05700
C657        C  0.03153158  0.66321347  0.60693790     0.00240
C658        C  0.05581707  0.64424082  0.60496785    -0.08230
C659        C  0.09423084  0.65753178  0.62539442     0.62150
H660        H  0.06246270  0.59746757  0.58235864     0.12840
H661        H  0.47630493  0.66204790  0.59152723     0.12860
C662        C  0.44285377  0.59940301  0.54894337     0.62380
F663        F  0.10921159  0.63079654  0.62322404    -0.22780
F664        F  0.08547114  0.65968164  0.65756736    -0.20110
F665        F  0.12514524  0.69497628  0.61498219    -0.19790
F666        F  0.41684770  0.55902119  0.55652843    -0.19840
F667        F  0.45093205  0.60366637  0.51610075    -0.20160
F668        F  0.42250790  0.62040564  0.55656381    -0.22840
C669        C  0.13207548  0.51213520  0.56824527    -0.05680
C670        C  0.08913137  0.99419547  0.57190574     0.00250
C671        C  0.07002973  0.96920210  0.59950973    -0.08320
C672        C  0.09338549  0.95905945  0.61981201    -0.05700
C673        C  0.13545217  0.97450754  0.61478808     0.00240
C674        C  0.15581122  0.50269442  0.58928066    -0.08230
C675        C  0.20171862  0.52294507  0.58260674     0.62150
H676        H  0.14706192  0.53232682  0.54803799     0.12840
H677        H  0.07874535  0.93873889  0.64014777     0.12860
C678        C  0.02506337  0.95282231  0.60805068     0.62380
F679        F  0.20818774  0.51542373  0.55108345    -0.22780
F680        F  0.22197437  0.50950041  0.60269220    -0.20110
F681        F  0.21882897  0.56429210  0.58649835    -0.19790
F682        F  0.00107883  0.91866346  0.58994503    -0.19840
F683        F  0.01413793  0.98215806  0.60221703    -0.20160
F684        F  0.01723882  0.94204622  0.64039266    -0.22840
C685        C  0.18914467  0.52469069  0.73188540    -0.05680
C686        C  0.20857566  0.50397099  0.71924767     0.00250
C687        C  0.24813762  0.51381017  0.73051802    -0.08320
C688        C  0.26567410  0.54253273  0.75503569    -0.05700
C689        C  0.24709423  0.56433774  0.76729005     0.00240
C690        C  0.20805626  0.55545329  0.75519262    -0.08230
C691        C  0.18679119  0.57870772  0.76581467     0.62150
H692        H  0.15907695  0.51703890  0.72269341     0.12840
H693        H  0.29492969  0.54824583  0.76460520     0.12860
C694        C  0.27316174  0.99575378  0.71629865     0.62380
F695        F  0.15049704  0.56676711  0.74923633    -0.22780
F696        F  0.21235691  0.61963583  0.75997421    -0.20110
F697        F  0.17729769  0.57217286  0.79837366    -0.19790
F698        F  0.27040336  0.49420741  0.68300920    -0.19840
F699        F  0.25928366  0.95730427  0.72869472    -0.20160
F700        F  0.31452087  0.01879476  0.72376878    -0.22840
C701        C  0.47135959  0.63737568  0.92064083    -0.05680
C702        C  0.45916496  0.63703866  0.95273184     0.00250
C703        C  0.42986868  0.64951048  0.95985938    -0.08320
C704        C  0.41527195  0.66359550  0.93447105    -0.05700
C705        C  0.42638532  0.66253428  0.90233179     0.00240
C706        C  0.45412610  0.64843537  0.89518061    -0.08230
C707        C  0.46133898  0.64042572  0.86076015     0.62150
H708        H  0.49319523  0.62716527  0.91557234     0.12840
H709        H  0.39271849  0.67291661  0.93943257     0.12860
C710        C  0.41192929  0.64657345  0.99347071     0.62380
F711        F  0.49132327  0.62924360  0.85842412    -0.22780
F712        F  0.47339094  0.67463655  0.84184966    -0.20110
F713        F  0.42486565  0.60902991  0.84935187    -0.19790
F714        F  0.43470596  0.68297891  0.00920260    -0.19840
F715        F  0.41162182  0.61579528  0.01167389    -0.20160
F716        F  0.37152727  0.63836751  0.99154533    -0.22840
C717        C  0.01693705  0.68734325  0.06996984    -0.05680
C718        C  0.03714923  0.66877284  0.05493358     0.00250
C719        C  0.07886245  0.68227029  0.06209244    -0.08320
C720        C  0.09805376  0.71251277  0.08526311    -0.05700
C721        C  0.07856831  0.73209156  0.10013551     0.00240
C722        C  0.03705885  0.71938304  0.09204509    -0.08230
C723        C  0.01396283  0.73932081  0.10603508     0.62150
H724        H  0.98516838  0.67690812  0.06361629     0.12840
H725        H  0.12904641  0.72075033  0.09196882     0.12860
C726        C  0.10397975  0.66621353  0.04483402     0.62380
F727        F  0.97442371  0.72272149  0.09394396    -0.22780
F728        F  0.03455213  0.78015074  0.09828346    -0.20110
F729        F  0.01088816  0.73434195  0.13922271    -0.19790
F730        F  0.09748229  0.66457486  0.01187123    -0.19840
F731        F  0.09336188  0.62813047  0.05644154    -0.20160
F732        F  0.14576333  0.69068622  0.04962876    -0.22840
C733        C  0.16734297  0.98328680  0.25993679    -0.05680
C734        C  0.20221663  0.99517657  0.27940476     0.00250
C735        C  0.22532209  0.97519189  0.27650627    -0.08320
C736        C  0.21413488  0.94556964  0.25273456    -0.05700
C737        C  0.17979914  0.93387566  0.23236822     0.00240
C738        C  0.15530463  0.95255803  0.23656622    -0.08230
C739        C  0.11690670  0.94052757  0.21678879     0.62150
H740        H  0.14935051  0.99820283  0.26351888     0.12840
H741        H  0.23294706  0.93148136  0.24988217     0.12860
C742        C  0.26095369  0.98411620  0.29899893     0.62380
F743        F  0.09806596  0.96280124  0.22491128    -0.22780
F744        F  0.08879102  0.90007374  0.22221615    -0.20110
F745        F  0.12701062  0.94696025  0.18433255    -0.19790
F746        F  0.24827902  0.98104470  0.33082619    -0.19840
F747        F  0.29317997  0.52258417  0.29314410    -0.20160
F748        F  0.27547550  0.95725209  0.29475437    -0.22840
C749        C  0.16613737  0.52295022  0.41225298    -0.05680
C750        C  0.15629753  0.52918219  0.38084534     0.00250
C751        C  0.11646375  0.52327986  0.37433726    -0.08320
C752        C  0.08740249  0.51028726  0.39963267    -0.05700
C753        C  0.09729706  0.50447172  0.43113497     0.00240
C754        C  0.13747950  0.51168045  0.43782137    -0.08230
C755        C  0.15100531  0.51122853  0.47217905     0.62150
H756        H  0.19696622  0.52828825  0.41674377     0.12840
H757        H  0.05699632  0.50624069  0.39535752     0.12860
C758        C  0.10537231  0.53289461  0.34137937     0.62380
F759        F  0.19113557  0.51857725  0.47357173    -0.22780
F760        F  0.12523475  0.97332846  0.48624199    -0.20110
F761        F  0.14879726  0.54116861  0.48935075    -0.19790
F762        F  0.10355328  0.00581504  0.31872165    -0.19840
F763        F  0.13479710  0.57146913  0.33167637    -0.20160
F764        F  0.06760443  0.53142303  0.34193944    -0.22840
C765        C  0.01459980  0.68935578  0.26282427    -0.05680
C766        C  0.00895631  0.71268770  0.28629460     0.00250
C767        C  0.03415745  0.75517599  0.28604098    -0.08320
C768        C  0.06419063  0.77318089  0.26174608    -0.05700
C769        C  0.06937042  0.75024664  0.23742338     0.00240
C770        C  0.04434569  0.70741651  0.23803562    -0.08230
C771        C  0.04802268  0.68089087  0.21244691     0.62150
H772        H  0.99511684  0.65676218  0.26400443     0.12840
H773        H  0.08363545  0.80579943  0.26132109     0.12860
C774        C  0.02920010  0.78131287  0.31133718     0.62380
F775        F  0.01882460  0.64047859  0.21666415    -0.22780
F776        F  0.08649784  0.68412192  0.21403117    -0.20110
F777        F  0.04246106  0.69278468  0.18211653    -0.19790
F778        F  0.03434139  0.76956222  0.34181851    -0.19840
F779        F  0.99034128  0.77708339  0.30927057    -0.20160
F780        F  0.05778201  0.82194927  0.30730031    -0.22840
C781        C  0.43915055  0.59164941  0.39063668    -0.05680
C782        C  0.46671954  0.63306004  0.38870763     0.00250
C783        C  0.00221109  0.65010056  0.40852868    -0.08320
C784        C  0.00995600  0.62414964  0.42812901    -0.05700
C785        C  0.48219968  0.58225851  0.43018153     0.00240
C786        C  0.44536082  0.56586283  0.41119759    -0.08230
C787        C  0.41238519  0.52136924  0.41125754     0.62150
H788        H  0.41253101  0.57941124  0.37503592     0.12840
H789        H  0.03740258  0.63715600  0.44287905     0.12860
C790        C  0.03197879  0.69521253  0.41077782     0.62380
F791        F  0.38143710  0.51275132  0.38913129    -0.22780
F792        F  0.39382211  0.50993729  0.44134468    -0.20110
F793        F  0.43026039  0.49856833  0.40297862    -0.19790
F794        F  0.01677564  0.71827556  0.39695991    -0.19840
F795        F  0.06861964  0.70419228  0.39568085    -0.20160
F796        F  0.03972394  0.70614584  0.44290984    -0.22840
C797        C  0.13469174  0.92634704  0.04080696    -0.05680
C798        C  0.13133857  0.95979537  0.05066792     0.00250
C799        C  0.14326523  0.97505136  0.08232477    -0.08320
C800        C  0.15668641  0.95490854  0.10357382    -0.05700
C801        C  0.15862610  0.92058487  0.09391340     0.00240
C802        C  0.14846737  0.90661071  0.06182819    -0.08230
C803        C  0.15411077  0.87223725  0.04943957     0.62150
H804        H  0.12682132  0.91612055  0.01613914     0.12840
H805        H  0.16446460  0.96497173  0.12825348     0.12860
C806        C  0.14215725  0.01245563  0.09347849     0.62380
F807        F  0.14664252  0.86625061  0.01663368    -0.22780
F808        F  0.12739847  0.83654865  0.06522799    -0.20110
F809        F  0.19434090  0.88151187  0.05476874    -0.19790
F810        F  0.10205570  0.00510347  0.09347788    -0.19840
F811        F  0.16571996  0.54460221  0.07293704    -0.20160
F812        F  0.15733235  0.52342179  0.12439996    -0.22840
C813        C  0.23702248  0.59739767  0.93243815    -0.05680
C814        C  0.23814492  0.57696684  0.90462033     0.00250
C815        C  0.20727046  0.53604884  0.90034039    -0.08320
C816        C  0.17517800  0.51789488  0.92347347    -0.05700
C817        C  0.17298960  0.53976282  0.94994052     0.00240
C818        C  0.20444738  0.57997878  0.95478455    -0.08230
C819        C  0.20296114  0.60434935  0.98327737     0.62150
H820        H  0.26180376  0.62767967  0.93617184     0.12840
H821        H  0.15144741  0.98651768  0.92108008     0.12860
C822        C  0.20785340  0.51199607  0.87145365     0.62380
F823        F  0.23619143  0.64317974  0.98345502    -0.22780
F824        F  0.20321253  0.58574315  0.01196525    -0.20110
F825        F  0.16748170  0.60716671  0.98183394    -0.19790
F826        F  0.24356610  0.50954654  0.87171134    -0.19840
F827        F  0.20626882  0.53071510  0.84321390    -0.20160
F828        F  0.17472094  0.97293261  0.87181194    -0.22840
C829        C  0.37614935  0.82481843  0.41445957    -0.05680
C830        C  0.37618653  0.83852714  0.38278697     0.00250
C831        C  0.39847192  0.88091058  0.37636153    -0.08320
C832        C  0.41406221  0.90751466  0.40250268    -0.05700
C833        C  0.41310903  0.89390588  0.43403155     0.00240
C834        C  0.39738207  0.85192921  0.43959108    -0.08230
C835        C  0.40619369  0.83593598  0.47055078     0.62150
H836        H  0.36056156  0.79257325  0.41924955     0.12840
H837        H  0.43116335  0.93947794  0.39775033     0.12860
C838        C  0.40957047  0.89962052  0.34265554     0.62380
F839        F  0.38670705  0.79405487  0.47116816    -0.22780
F840        F  0.39318805  0.84814550  0.49719474    -0.20110
F841        F  0.44808423  0.85043333  0.47291199    -0.19790
F842        F  0.38326035  0.91385204  0.33406552    -0.19840
F843        F  0.40795202  0.87253793  0.31978429    -0.20160
F844        F  0.44949101  0.93188584  0.34218405    -0.22840
C845        C  0.25702428  0.80585224  0.29245267    -0.05680
C846        C  0.29020302  0.80037028  0.28387796     0.00250
C847        C  0.30687991  0.81031580  0.25212675    -0.08320
C848        C  0.28849977  0.82422010  0.22960324    -0.05700
C849        C  0.25396666  0.82759434  0.23780337     0.00240
C850        C  0.23813867  0.81885654  0.26980276    -0.08230
C851        C  0.20130082  0.82297661  0.28002075     0.62150
H852        H  0.24543787  0.79891886  0.31703095     0.12840
H853        H  0.29937210  0.83018965  0.20480621     0.12860
C854        C  0.34355747  0.80598014  0.24186466     0.62380
F855        F  0.19560646  0.81975479  0.31319603    -0.22780
F856        F  0.16584871  0.79296760  0.26602979    -0.20110
F857        F  0.20721053  0.86036059  0.27050596    -0.19790
F858        F  0.33278319  0.76557010  0.24194329    -0.19840
F859        F  0.37590581  0.82682633  0.26283808    -0.20160
F860        F  0.35710856  0.82123063  0.21104844    -0.22840
C861        C  0.32654338  0.87364456  0.58776200    -0.05680
C862        C  0.33965121  0.87585298  0.61984942     0.00250
C863        C  0.38254560  0.89785441  0.62641098    -0.08320
C864        C  0.41040548  0.91197510  0.60030025    -0.05700
C865        C  0.39737566  0.91010388  0.56840696     0.00240
C866        C  0.35463118  0.89306944  0.56226954    -0.08230
C867        C  0.33851587  0.89767537  0.52974570     0.62150
H868        H  0.29384509  0.85758608  0.58287238     0.12840
H869        H  0.44285443  0.92818311  0.60524251     0.12860
C870        C  0.40054678  0.91005388  0.66008930     0.62380
F871        F  0.29589880  0.87704938  0.52883037    -0.22780
F872        F  0.35239356  0.88290224  0.50538771    -0.20110
F873        F  0.35183775  0.93811215  0.52374659    -0.19790
F874        F  0.41643660  0.88572514  0.66983115    -0.19840
F875        F  0.37193604  0.90753740  0.68259376    -0.20160
F876        F  0.43210199  0.94992775  0.65968555    -0.22840
C877        C  0.30226031  0.75738338  0.70856777    -0.05680
C878        C  0.29310796  0.78748055  0.71805387     0.00250
C879        C  0.29840064  0.79990043  0.75082363    -0.08320
C880        C  0.31173936  0.78076680  0.77310202    -0.05700
C881        C  0.31976310  0.75002976  0.76362308     0.00240
C882        C  0.31543648  0.73826839  0.73087680    -0.08230
C883        C  0.32571995  0.70637856  0.71950039     0.62150
H884        H  0.29901563  0.74902807  0.68333529     0.12840
H885        H  0.31451501  0.78856586  0.79845461     0.12860
C886        C  0.29037198  0.83325727  0.76237423     0.62380
F887        F  0.32306565  0.70213150  0.68626301    -0.22780
F888        F  0.29887905  0.66924603  0.73327556    -0.20110
F889        F  0.36549434  0.71743254  0.72836763    -0.19790
F890        F  0.24880502  0.82047419  0.76060776    -0.19840
F891        F  0.31213479  0.86760511  0.74347060    -0.20160
F892        F  0.30234086  0.84363338  0.79411743    -0.22840
C893        C  0.35268318  0.78747987  0.95521232    -0.05680
C894        C  0.36778699  0.82787037  0.94538186     0.00250
C895        C  0.36815930  0.83660935  0.91178772    -0.08320
C896        C  0.35498454  0.80456679  0.88954225    -0.05700
C897        C  0.33956287  0.76444091  0.89981889     0.00240
C898        C  0.33725544  0.75566805  0.93306165    -0.08230
C899        C  0.31548738  0.71239342  0.94483953     0.62150
H900        H  0.35198135  0.78079152  0.98073532     0.12840
H901        H  0.35762234  0.81073263  0.86380314     0.12860
C902        C  0.38192314  0.87896744  0.89894469     0.62380
F903        F  0.31464128  0.70963921  0.97821767    -0.22780
F904        F  0.33465628  0.69196604  0.93293376    -0.20110
F905        F  0.27544074  0.69449805  0.93383714    -0.19790
F906        F  0.42430630  0.90220588  0.90023671    -0.19840
F907        F  0.36419497  0.89705403  0.91682411    -0.20160
F908        F  0.37044540  0.87821268  0.86707636    -0.22840
C909        C  0.28409275  0.84195953  0.04244979    -0.05680
C910        C  0.32639441  0.86372514  0.04972092     0.00250
C911        C  0.33840588  0.86984682  0.08283205    -0.08320
C912        C  0.30763139  0.85802668  0.10676780    -0.05700
C913        C  0.26579505  0.83686025  0.09907542     0.00240
C914        C  0.25382371  0.82662729  0.06676912    -0.08230
C915        C  0.20959458  0.79687734  0.05865735     0.62150
H916        H  0.27470953  0.83629071  0.01744908     0.12840
H917        H  0.31614424  0.86587729  0.13179470     0.12860
C918        C  0.38280219  0.88805363  0.09383908     0.62380
F919        F  0.20370012  0.79032071  0.02576168    -0.22780
F920        F  0.18361201  0.81025014  0.06974078    -0.20110
F921        F  0.19947060  0.76063351  0.07366037    -0.19790
F922        F  0.40173756  0.92982320  0.09310930    -0.19840
F923        F  0.40435803  0.87524699  0.07453403    -0.20160
F924        F  0.38465880  0.87625189  0.12521466    -0.22840
C925        C  0.49604971  0.03680913  0.99999662     0.03230
C926        C  0.53398641  0.03724467  0.00060048    -0.12920
C927        C  0.53518978  0.00083814  0.99937245     0.00730
C928        C  0.99804115  0.46396813  0.99757962    -0.11440
C929        C  0.96005074  0.46312891  0.99687324     0.03230
C930        C  0.95921285  0.49965376  0.99800230    -0.10860
H931        H  0.56249601  0.06584519  0.00211022     0.08820
H932        H  0.99878677  0.43582502  0.99695642     0.06350
H933        H  0.92995375  0.49914078  0.99763314     0.06200
C934        C  0.66318512  0.37033852  0.66524680     0.03230
C935        C  0.69996991  0.36903429  0.66776392    -0.12920
C936        C  0.69980440  0.33203580  0.66656287     0.00730
C937        C  0.66223081  0.29589104  0.66298395    -0.11440
C938        C  0.62510780  0.29663610  0.66052268     0.03230
C939        C  0.62576170  0.33399312  0.66161766    -0.10860
H940        H  0.72892444  0.39700591  0.67039163     0.08820
H941        H  0.66185235  0.26720652  0.66212134     0.06350
H942        H  0.59719906  0.33472063  0.65990048     0.06200
C943        C  0.86890337  0.16736878  0.33297838     0.03230
C944        C  0.86776629  0.20362447  0.33240803    -0.12920
C945        C  0.83013549  0.20338918  0.33188106     0.00730
C946        C  0.79306804  0.16616555  0.33146924    -0.11440
C947        C  0.79356562  0.12939401  0.33172183     0.03230
C948        C  0.83170904  0.13022459  0.33260455    -0.10860
H949        H  0.89641151  0.23223221  0.33266760     0.08820
H950        H  0.76388387  0.16579385  0.33108351     0.06350
H951        H  0.83243860  0.10207104  0.33301813     0.06200
C952        C  0.87743878  0.35823018  0.97151084     0.03230
C953        C  0.91476277  0.39502487  0.97252222    -0.12920
C954        C  0.92118280  0.42393126  0.99619441     0.00730
C955        C  0.89098396  0.41486162  0.02006053    -0.11440
C956        C  0.85618605  0.37611469  0.02213106     0.03230
C957        C  0.84914383  0.34870082  0.99706047    -0.10860
H958        H  0.93882949  0.40133502  0.95512597     0.08820
H959        H  0.89533071  0.43766644  0.03746229     0.06350
H960        H  0.82148464  0.31932182  0.99756581     0.06200
C961        C  0.78345395  0.30866765  0.69229122     0.03230
C962        C  0.81315488  0.32954280  0.66826102    -0.12920
C963        C  0.80770608  0.35368629  0.64529006     0.00730
C964        C  0.77076837  0.35504625  0.64567047    -0.11440
C965        C  0.73919624  0.33157187  0.66784480     0.03230
C966        C  0.74558827  0.30812414  0.69104595    -0.10860
H967        H  0.84110922  0.32761734  0.66793490     0.08820
H968        H  0.76608853  0.37368248  0.62819032     0.06350
H969        H  0.72134675  0.28988225  0.70815275     0.06200
C970        C  0.80945868  0.28857979  0.30960580     0.03230
C971        C  0.80812880  0.25104597  0.30939130    -0.12920
C972        C  0.83003460  0.24229869  0.33253179     0.00730
C973        C  0.85339819  0.27159527  0.35572529    -0.11440
C974        C  0.85306013  0.30842289  0.35722506     0.03230
C975        C  0.82935864  0.31561318  0.33479590    -0.10860
H976        H  0.79082810  0.22909468  0.29094838     0.08820
H977        H  0.87157198  0.26543695  0.37277360     0.06350
H978        H  0.82751965  0.34309114  0.33612563     0.06200
C979        C  0.62103157  0.48104348  0.02537711     0.03230
C980        C  0.58341702  0.48107663  0.02499017    -0.12920
C981        C  0.57485519  0.50102591  0.99992489     0.00730
C982        C  0.60396998  0.01991491  0.97487916    -0.11440
C983        C  0.64086771  0.01855800  0.97478459     0.03230
C984        C  0.64898316  0.49916595  0.99990641    -0.10860
H985        H  0.56086267  0.46556400  0.04395712     0.08820
H986        H  0.59779541  0.03537341  0.95548684     0.06350
H987        H  0.67781025  0.49875329  0.99992959     0.06200
C988        C  0.95862137  0.15623643  0.36354583     0.03230
C989        C  0.91939901  0.15281901  0.36119471    -0.12920
C990        C  0.90934225  0.16908951  0.33451652     0.00730
C991        C  0.93889589  0.18898202  0.31007364    -0.11440
C992        C  0.47790197  0.19222714  0.31214104     0.03230
C993        C  0.48744053  0.17549244  0.33865551    -0.10860
H994        H  0.89668074  0.13733246  0.38008947     0.08820
H995        H  0.93156340  0.20189118  0.28945558     0.06350
H996        H  0.51714460  0.17697753  0.33967661     0.06200
C997        C  0.71049498  0.52486652  0.30525346     0.03230
C998        C  0.68207042  0.51414557  0.33052303    -0.12920
C999        C  0.68815283  0.04148514  0.35517795     0.00730
C1000       C  0.72456176  0.07936919  0.35560831    -0.11440
C1001       C  0.75434264  0.09014323  0.33091611     0.03230
C1002       C  0.74660683  0.06309843  0.30536227    -0.10860
H1003       H  0.65507929  0.48421319  0.33102131     0.08820
H1004       H  0.72980898  0.10017250  0.37517287     0.06350
H1005       H  0.76850821  0.07178189  0.28560608     0.06200
O1006       O  0.59049181  0.28443694  0.13975964    -0.81690
C1007       C  0.72988690  0.33109804  0.21121931     0.97660
O1008       O  0.69488699  0.30120901  0.20694330    -0.70810
O1009       O  0.61699422  0.25946220  0.19428276    -0.74400
Al1010     Al  0.66706200  0.28739870  0.16813534     1.48980
C1011       C  0.59826850  0.27346390  0.21074048     0.92920
O1012       O  0.64099041  0.38494113  0.18998469    -0.80620
O1013       O  0.69584603  0.40879776  0.13571405    -0.74180
Al1014     Al  0.62051062  0.33477357  0.16479160     1.90120
O1015       O  0.70387056  0.39903114  0.20077371    -0.73250
O1016       O  0.73138317  0.36500452  0.12587130    -0.73100
O1017       O  0.74457898  0.36110415  0.19175613    -0.78760
O1018       O  0.71729249  0.30450939  0.14249025    -0.76960
O1019       O  0.66753483  0.33410490  0.16541158    -1.13100
O1020       O  0.63893984  0.26960321  0.12984184    -0.72290
C1021       C  0.60354807  0.26409339  0.12427622     0.98430
C1022       C  0.67376934  0.40410420  0.20642470     0.94820
Al1023     Al  0.71516453  0.37991330  0.16358595     1.55560
O1024       O  0.60337753  0.30794825  0.20432811    -0.76910
C1025       C  0.73614918  0.33468794  0.12357501     0.98990
C1026       C  0.66328218  0.39569317  0.11908686     0.93870
O1027       O  0.63252370  0.36184522  0.12517653    -0.82230
C1028       C  0.97836134  0.12435926  0.97815576     0.03230
C1029       C  0.99909193  0.15091734  0.00334651    -0.12920
C1030       C  0.51535481  0.13922256  0.02889586     0.00730
C1031       C  0.51190092  0.10066960  0.02853414    -0.11440
C1032       C  0.99481404  0.07515773  0.00187205     0.03230
C1033       C  0.97706290  0.08670769  0.97702903    -0.10860
H1034       H  0.00248127  0.18093316  0.00308833     0.08820
H1035       H  0.52239921  0.09034304  0.04885099     0.06350
H1036       H  0.96250445  0.06661236  0.95687233     0.06200
C1037       C  0.65636100  0.46277673  0.63920637     0.03230
C1038       C  0.67541997  0.98860191  0.66513734    -0.12920
C1039       C  0.68837590  0.97545692  0.69206408     0.00730
C1040       C  0.68189911  0.43569798  0.69266487    -0.11440
C1041       C  0.66470640  0.41007778  0.66601104     0.03230
C1042       C  0.65103571  0.42347685  0.63959571    -0.10950
H1043       H  0.67924433  0.01880336  0.66464359     0.08820
H1044       H  0.68975904  0.42432203  0.71385163     0.06350
H1045       H  0.63621877  0.40343902  0.61945192     0.06200
C1046       C  0.53969811  0.19445974  0.63169278     0.03230
C1047       C  0.57650306  0.23203089  0.63214518    -0.12920
C1048       C  0.58545852  0.25821021  0.65851561     0.00730
C1049       C  0.55690653  0.24698579  0.68390404    -0.11440
C1050       C  0.01877172  0.21110543  0.68245389     0.03230
C1051       C  0.01067827  0.18484257  0.65649754    -0.10860
H1052       H  0.59823893  0.24076683  0.61230062     0.08820
H1053       H  0.56471851  0.26601087  0.70500543     0.06350
H1054       H  0.98187629  0.15642163  0.65582416     0.06200
O1055       O  0.78744470  0.09027771  0.86139106    -0.81690
C1056       C  0.82537676  0.22619358  0.78921460     0.97660
O1057       O  0.79591784  0.19126032  0.79467237    -0.70810
O1058       O  0.75670357  0.11363101  0.80903250    -0.74400
Al1059     Al  0.78542351  0.16397415  0.83417535     1.48980
C1060       C  0.77133155  0.09606280  0.79180329     0.92920
O1061       O  0.88637466  0.14219691  0.80638932    -0.80620
O1062       O  0.91196807  0.19679171  0.85968336    -0.74180
Al1063     Al  0.83673307  0.12122841  0.83411808     1.90120
O1064       O  0.89665138  0.20249340  0.79481548    -0.73250
O1065       O  0.86688550  0.23031639  0.87177697    -0.73100
O1066       O  0.85740832  0.24115823  0.80667917    -0.78760
O1067       O  0.80342265  0.21386407  0.85926149    -0.76960
O1068       O  0.83400183  0.16640823  0.83410660    -1.13100
O1069       O  0.77052031  0.13630045  0.87359459    -0.72290
C1070       C  0.76734624  0.10221988  0.87869343     0.98430
C1071       C  0.90262137  0.17360859  0.78841246     0.94820
Al1072     Al  0.87973141  0.21390982  0.83332733     1.55560
O1073       O  0.80779559  0.10414979  0.79598668    -0.76910
C1074       C  0.83578783  0.23423610  0.87587785     0.98990
C1075       C  0.90032313  0.16524537  0.87701902     0.93870
O1076       O  0.86625906  0.13413330  0.87242074    -0.82230
O1077       O  0.95044781  0.42173721  0.52925308    -0.81690
C1078       C  0.49125086  0.05771921  0.45366627     0.97660
O1079       O  0.96372853  0.02194921  0.45840714    -0.70810
O1080       O  0.92330687  0.44472446  0.47307762    -0.74400
Al1081     Al  0.95134610  0.99550133  0.49801285     1.48980
C1082       C  0.93747411  0.42472780  0.45845391     0.92920
O1083       O  0.55147981  0.47067837  0.47622061    -0.80620
O1084       O  0.57737029  0.02669056  0.52548404    -0.74180
Al1085     Al  0.00095871  0.45097600  0.50258241     1.90120
O1086       O  0.56203356  0.03022188  0.45973087    -0.73250
O1087       O  0.53279048  0.06072732  0.53541855    -0.73100
O1088       O  0.52392051  0.07199551  0.47047632    -0.78760
O1089       O  0.97007120  0.04587745  0.52308104    -0.76960
O1090       O  0.49903808  0.99657020  0.49942435    -1.13100
O1091       O  0.93344139  0.46850871  0.53758405    -0.72290
C1092       C  0.92888978  0.43431130  0.54385547     0.98430
C1093       C  0.56839460  0.00091558  0.45691451     0.94820
Al1094     Al  0.54544880  0.04368293  0.49779203     1.55560
O1095       O  0.97277558  0.43052476  0.46435750    -0.76910
C1096       C  0.00245188  0.06578204  0.53992511     0.98990
C1097       C  0.56406244  0.99680472  0.54506467     0.93870
O1098       O  0.52928272  0.46661736  0.54103891    -0.82230
C1099       C  0.96955317  0.16210665  0.72280635    -0.05680
C1100       C  0.98732129  0.20062492  0.70817865     0.00250
C1101       C  0.97333429  0.22753134  0.71720519    -0.08320
C1102       C  0.94707385  0.21748957  0.74396476    -0.05700
C1103       C  0.93019754  0.17956430  0.75999788     0.00240
C1104       C  0.93952386  0.15023278  0.74747740    -0.08230
C1105       C  0.91778568  0.10659331  0.75893589     0.62150
H1106       H  0.97936755  0.14118501  0.71459786     0.12840
H1107       H  0.93941134  0.23995837  0.75213677     0.12860
C1108       C  0.98395941  0.26581441  0.69798446     0.62380
F1109       F  0.92660175  0.08237267  0.73937305    -0.22780
F1110       F  0.87564268  0.09110236  0.75852252    -0.20110
F1111       F  0.93026021  0.10441833  0.78970980    -0.19790
F1112       F  0.98344085  0.25874635  0.66518666    -0.19840
F1113       F  0.02237669  0.29679732  0.70653013    -0.20160
F1114       F  0.95565211  0.27857187  0.70373619    -0.22840
C1115       C  0.54371153  0.11178867  0.58379342    -0.05680
C1116       C  0.50822534  0.09715951  0.56430738     0.00250
C1117       C  0.98288182  0.11504917  0.56743647    -0.08320
C1118       C  0.99527920  0.14802951  0.58869505    -0.05700
C1119       C  0.53163794  0.16329836  0.60694495     0.00240
C1120       C  0.55596732  0.14437616  0.60492089    -0.08230
C1121       C  0.59437479  0.15765140  0.62535152     0.62150
H1122       H  0.56269923  0.09771030  0.58220538     0.12840
H1123       H  0.97638154  0.16209926  0.59158034     0.12860
C1124       C  0.94296216  0.09951810  0.54894997     0.62380
F1125       F  0.60937545  0.13093526  0.62314287    -0.22780
F1126       F  0.58559591  0.15973962  0.65753047    -0.20110
F1127       F  0.62528061  0.19512021  0.61497680    -0.19790
F1128       F  0.91700060  0.05911729  0.55650289    -0.19840
F1129       F  0.95100966  0.10384493  0.51610332    -0.20160
F1130       F  0.92257797  0.12046472  0.55663510    -0.22840
C1131       C  0.63201351  0.01210143  0.56823339    -0.05680
C1132       C  0.58920721  0.49428926  0.57197549     0.00250
C1133       C  0.57013235  0.46933976  0.59960462    -0.08320
C1134       C  0.59349450  0.45918711  0.61988617    -0.05700
C1135       C  0.63554215  0.47457776  0.61481148     0.00240
C1136       C  0.65574091  0.00267157  0.58928864    -0.08230
C1137       C  0.70166639  0.02299546  0.58267265     0.62150
H1138       H  0.64702715  0.03235661  0.54806637     0.12840
H1139       H  0.57886953  0.43888798  0.64023669     0.12860
C1140       C  0.52515701  0.45290320  0.60814308     0.62380
F1141       F  0.70822230  0.01558215  0.55114077    -0.22780
F1142       F  0.72191547  0.00953252  0.60274754    -0.20110
F1143       F  0.71871549  0.06432469  0.58663887    -0.19790
F1144       F  0.50124055  0.41866067  0.59010332    -0.19840
F1145       F  0.51411616  0.48213831  0.60221754    -0.20160
F1146       F  0.51737056  0.44223634  0.64050633    -0.22840
C1147       C  0.68912834  0.02467588  0.73187112    -0.05680
C1148       C  0.70855007  0.00395109  0.71922449     0.00250
C1149       C  0.74811341  0.01378546  0.73049268    -0.08320
C1150       C  0.76565660  0.04250372  0.75501513    -0.05700
C1151       C  0.74708289  0.06430893  0.76728067     0.00240
C1152       C  0.70804529  0.05543159  0.75518526    -0.08230
C1153       C  0.68678426  0.07868560  0.76581839     0.62150
H1154       H  0.65905989  0.01702961  0.72268457     0.12840
H1155       H  0.79491295  0.04821278  0.76458049     0.12860
C1156       C  0.77318971  0.49578000  0.71632786     0.62380
F1157       F  0.65049057  0.06675482  0.74924210    -0.22780
F1158       F  0.71235306  0.11961519  0.75998709    -0.20110
F1159       F  0.67729106  0.07213915  0.79837690    -0.19790
F1160       F  0.77035451  0.99416133  0.68298143    -0.19840
F1161       F  0.75929694  0.45732202  0.72871055    -0.20160
F1162       F  0.81454432  0.51880953  0.72381506    -0.22840
C1163       C  0.97138543  0.13735290  0.92063224    -0.05680
C1164       C  0.95918569  0.13699618  0.95272512     0.00250
C1165       C  0.92988628  0.14946659  0.95985725    -0.08320
C1166       C  0.91528521  0.16355403  0.93447244    -0.05700
C1167       C  0.92639975  0.16250456  0.90233215     0.00240
C1168       C  0.95415202  0.14842161  0.89517655    -0.08230
C1169       C  0.96137469  0.14043450  0.86075304     0.62150
H1170       H  0.99322851  0.12715385  0.91555752     0.12840
H1171       H  0.89272845  0.17287022  0.93943716     0.12860
C1172       C  0.91194601  0.14652800  0.99346861     0.62380
F1173       F  0.99136939  0.12926734  0.85841027    -0.22780
F1174       F  0.97341727  0.17465236  0.84185334    -0.20110
F1175       F  0.92490755  0.10903686  0.84933847    -0.19790
F1176       F  0.93472604  0.18292983  0.00920498    -0.19840
F1177       F  0.91163010  0.11574243  0.01166637    -0.20160
F1178       F  0.87154690  0.13833233  0.99154381    -0.22840
C1179       C  0.51689744  0.18729294  0.06996732    -0.05680
C1180       C  0.53712385  0.16872349  0.05494826     0.00250
C1181       C  0.57883252  0.18222581  0.06212804    -0.08320
C1182       C  0.59800048  0.21246069  0.08530664    -0.05700
C1183       C  0.57850016  0.23203392  0.10016442     0.00240
C1184       C  0.53700039  0.21933126  0.09204776    -0.08230
C1185       C  0.51389755  0.23927381  0.10601759     0.62150
H1186       H  0.48513434  0.17685939  0.06359655     0.12840
H1187       H  0.62898797  0.22069797  0.09202896     0.12860
C1188       C  0.60397137  0.16618467  0.04488094     0.62380
F1189       F  0.47436732  0.22267690  0.09390920    -0.22780
F1190       F  0.53449464  0.28010377  0.09826473    -0.20110
F1191       F  0.51080062  0.23429839  0.13920539    -0.19790
F1192       F  0.59749867  0.16455718  0.01191484    -0.19840
F1193       F  0.59335817  0.12810177  0.05648493    -0.20160
F1194       F  0.64574892  0.19066141  0.04969365    -0.22840
C1195       C  0.66720278  0.48317160  0.25996071    -0.05680
C1196       C  0.70207575  0.49504697  0.27942340     0.00250
C1197       C  0.72520641  0.47509316  0.27649532    -0.08320
C1198       C  0.71404085  0.44551153  0.25269626    -0.05700
C1199       C  0.67970420  0.43383036  0.23233376     0.00240
C1200       C  0.65518671  0.45248207  0.23656149    -0.08230
C1201       C  0.61679368  0.44046604  0.21678213     0.62150
H1202       H  0.64920070  0.49807395  0.26356380     0.12840
H1203       H  0.73287696  0.43145354  0.24981523     0.12860
C1204       C  0.76084685  0.48401182  0.29897857     0.62380
F1205       F  0.59793900  0.46271891  0.22493015    -0.22780
F1206       F  0.58868614  0.40000306  0.22217894    -0.20110
F1207       F  0.62690905  0.44694343  0.18432914    -0.19790
F1208       F  0.74818749  0.48094120  0.33081019    -0.19840
F1209       F  0.79328286  0.02269150  0.29316745    -0.20160
F1210       F  0.77535953  0.45714218  0.29472356    -0.22840
C1211       C  0.66604558  0.02271899  0.41218155    -0.05680
C1212       C  0.65632833  0.02921027  0.38080859     0.00250
C1213       C  0.61655273  0.02345263  0.37429551    -0.08320
C1214       C  0.58743477  0.01038896  0.39955393    -0.05700
C1215       C  0.59721374  0.00434465  0.43103214     0.00240
C1216       C  0.63733014  0.01135994  0.43771966    -0.08230
C1217       C  0.65074063  0.01061673  0.47206430     0.62150
H1218       H  0.69682746  0.02792675  0.41667505     0.12840
H1219       H  0.55708337  0.00648150  0.39527802     0.12860
C1220       C  0.60558998  0.03328474  0.34137128     0.62380
F1221       F  0.69080434  0.01777408  0.47345954    -0.22780
F1222       F  0.62566059  0.47399721  0.48650334    -0.20110
F1223       F  0.64865078  0.04052884  0.48936927    -0.19790
F1224       F  0.60326156  0.50528656  0.31883595    -0.19840
F1225       F  0.63506648  0.07191238  0.33182968    -0.20160
F1226       F  0.56782984  0.03183013  0.34190938    -0.22840
C1227       C  0.51461908  0.18963912  0.26310285    -0.05680
C1228       C  0.50912774  0.21307011  0.28657525     0.00250
C1229       C  0.53441244  0.25554308  0.28625260    -0.08320
C1230       C  0.56437022  0.27344446  0.26188950    -0.05700
C1231       C  0.56940277  0.25041405  0.23756793     0.00240
C1232       C  0.54430199  0.20759391  0.23825265    -0.08230
C1233       C  0.54783652  0.18097687  0.21267316     0.62150
H1234       H  0.49507197  0.15705631  0.26433059     0.12840
H1235       H  0.58387038  0.30605552  0.26140948     0.12860
C1236       C  0.52958935  0.28176434  0.31154258     0.62380
F1237       F  0.51858788  0.14059338  0.21695728    -0.22780
F1238       F  0.58628101  0.18412929  0.21419614    -0.20110
F1239       F  0.54222505  0.19283736  0.18234487    -0.19790
F1240       F  0.53487617  0.27010334  0.34201769    -0.19840
F1241       F  0.49071757  0.27752606  0.30958313    -0.20160
F1242       F  0.55815723  0.32238571  0.30739836    -0.22840
C1243       C  0.94036251  0.09213277  0.38990639    -0.05680
C1244       C  0.96697165  0.13377342  0.38905544     0.00250
C1245       C  0.50192117  0.15094072  0.40946138    -0.08320
C1246       C  0.50977642  0.12501210  0.42901671    -0.05700
C1247       C  0.98300937  0.08286449  0.42992832     0.00240
C1248       C  0.94725802  0.06621688  0.40973281    -0.08230
C1249       C  0.91698288  0.02120767  0.40707574     0.62150
H1250       H  0.91422126  0.07980310  0.37379961     0.12840
H1251       H  0.53656510  0.13814649  0.44448975     0.12860
C1252       C  0.53107479  0.19611363  0.41225950     0.62380
F1253       F  0.88815250  0.01226750  0.38298534    -0.22780
F1254       F  0.89544916  0.00625788  0.43573904    -0.20110
F1255       F  0.93874916  0.00194292  0.39943930    -0.19790
F1256       F  0.51592615  0.21897094  0.39798116    -0.19840
F1257       F  0.56836259  0.20576575  0.39798390    -0.20160
F1258       F  0.53756432  0.20662456  0.44452839    -0.22840
C1259       C  0.63458841  0.42633632  0.04075153    -0.05680
C1260       C  0.63122324  0.45977799  0.05062019     0.00250
C1261       C  0.64314556  0.47501982  0.08228260    -0.08320
C1262       C  0.65655595  0.45486353  0.10352879    -0.05700
C1263       C  0.65850268  0.42054614  0.09386171     0.00240
C1264       C  0.64836539  0.40659415  0.06177008    -0.08230
C1265       C  0.65403402  0.37223746  0.04937691     0.62150
H1266       H  0.62672952  0.41612047  0.01607973     0.12840
H1267       H  0.66432772  0.46491584  0.12821158     0.12860
C1268       C  0.64206338  0.51243444  0.09344450     0.62380
F1269       F  0.64659220  0.36626894  0.01656713    -0.22780
F1270       F  0.62731923  0.33653809  0.06515099    -0.20110
F1271       F  0.69426341  0.38151888  0.05472417    -0.19790
F1272       F  0.60197168  0.50511028  0.09344666    -0.19840
F1273       F  0.66579628  0.04462299  0.07296542    -0.20160
F1274       F  0.65742382  0.02345872  0.12443282    -0.22840
C1275       C  0.73708558  0.09736922  0.93245046    -0.05680
C1276       C  0.73819226  0.07693602  0.90462883     0.00250
C1277       C  0.70732016  0.03601736  0.90035122    -0.08320
C1278       C  0.67525253  0.01785747  0.92349991    -0.05700
C1279       C  0.67308134  0.03972478  0.94997199     0.00240
C1280       C  0.70452525  0.07994718  0.95480675    -0.08230
C1281       C  0.70302588  0.10432363  0.98329090     0.62150
H1282       H  0.76186110  0.12765696  0.93617571     0.12840
H1283       H  0.65137055  0.48655685  0.92104723     0.12860
C1284       C  0.70787615  0.01196862  0.87145186     0.62380
F1285       F  0.73624492  0.14315966  0.98346273    -0.22780
F1286       F  0.70328184  0.08573479  0.01198690    -0.20110
F1287       F  0.66753736  0.10712406  0.98183636    -0.19790
F1288       F  0.74358230  0.00950743  0.87168653    -0.19840
F1289       F  0.70627842  0.03069633  0.84322119    -0.20160
F1290       F  0.67470610  0.47295571  0.87181116    -0.22840
C1291       C  0.87628604  0.32521203  0.41421558    -0.05680
C1292       C  0.87668109  0.33899415  0.38251917     0.00250
C1293       C  0.89939162  0.38138124  0.37607015    -0.08320
C1294       C  0.91523831  0.40802345  0.40220711    -0.05700
C1295       C  0.91366874  0.39423840  0.43379968     0.00240
C1296       C  0.89751868  0.35221224  0.43937859    -0.08230
C1297       C  0.90599935  0.33602619  0.47038675     0.62150
H1298       H  0.86039401  0.29296096  0.41900869     0.12840
H1299       H  0.93285234  0.44006034  0.39745406     0.12860
C1300       C  0.91052508  0.39997431  0.34233582     0.62380
F1301       F  0.88627528  0.29413323  0.47095868    -0.22780
F1302       F  0.89299352  0.34831362  0.49697908    -0.20110
F1303       F  0.94783262  0.35027418  0.47289514    -0.19790
F1304       F  0.88429357  0.41427587  0.33368446    -0.19840
F1305       F  0.90877807  0.37274998  0.31954564    -0.20160
F1306       F  0.95048705  0.43215859  0.34180395    -0.22840
C1307       C  0.75719456  0.30605772  0.29239927    -0.05680
C1308       C  0.79036534  0.30058995  0.28377659     0.00250
C1309       C  0.80694469  0.31045472  0.25199899    -0.08320
C1310       C  0.78850362  0.32431351  0.22949724    -0.05700
C1311       C  0.75398487  0.32769078  0.23774729     0.00240
C1312       C  0.73822642  0.31898916  0.26976847    -0.08230
C1313       C  0.70137855  0.32306885  0.28003076     0.62150
H1314       H  0.74568338  0.29917189  0.31699961     0.12840
H1315       H  0.79931395  0.33024242  0.20468366     0.12860
C1316       C  0.84357524  0.30606458  0.24169521     0.62380
F1317       F  0.69575194  0.31987976  0.31321291    -0.22780
F1318       F  0.66591399  0.29301560  0.26608757    -0.20110
F1319       F  0.70722069  0.36042345  0.27050450    -0.19790
F1320       F  0.83279293  0.26565098  0.24189172    -0.19840
F1321       F  0.87601106  0.32701071  0.26257466    -0.20160
F1322       F  0.85699654  0.32116111  0.21082421    -0.22840
C1323       C  0.82655637  0.37357312  0.58782092    -0.05680
C1324       C  0.83966090  0.37573293  0.61990140     0.00250
C1325       C  0.88256071  0.39761889  0.62645201    -0.08320
C1326       C  0.91041090  0.41162497  0.60033564    -0.05700
C1327       C  0.89739063  0.40981593  0.56844609     0.00240
C1328       C  0.85465469  0.39296236  0.56233006    -0.08230
C1329       C  0.83855733  0.39777995  0.52986223     0.62150
H1330       H  0.79385575  0.35761336  0.58294023     0.12840
H1331       H  0.94286148  0.42774913  0.60527642     0.12860
C1332       C  0.90059125  0.40984670  0.66011920     0.62380
F1333       F  0.79593959  0.37726822  0.52896613    -0.22780
F1334       F  0.85232958  0.38305036  0.50540246    -0.20110
F1335       F  0.85198666  0.43826493  0.52400033    -0.19790
F1336       F  0.91644974  0.38549775  0.66987848    -0.19840
F1337       F  0.87201548  0.40739476  0.68263026    -0.20160
F1338       F  0.93217606  0.44970700  0.65967714    -0.22840
C1339       C  0.80218269  0.25731147  0.70861417    -0.05680
C1340       C  0.79304696  0.28741688  0.71810781     0.00250
C1341       C  0.79837114  0.29985314  0.75087317    -0.08320
C1342       C  0.81172644  0.28072634  0.77314195    -0.05700
C1343       C  0.81974261  0.24998770  0.76365394     0.00240
C1344       C  0.81538553  0.23821121  0.73091130    -0.08230
C1345       C  0.82567089  0.20632610  0.71952465     0.62150
H1346       H  0.79891502  0.24894655  0.68338316     0.12840
H1347       H  0.81452426  0.28853370  0.79849352     0.12860
C1348       C  0.79036201  0.33322129  0.76242754     0.62380
F1349       F  0.82299667  0.20207553  0.68628784    -0.22780
F1350       F  0.79884510  0.16919277  0.73330557    -0.20110
F1351       F  0.86545331  0.21738980  0.72837474    -0.19790
F1352       F  0.74879648  0.32044938  0.76067531    -0.19840
F1353       F  0.81212275  0.36756345  0.74351731    -0.20160
F1354       F  0.80234995  0.34360255  0.79416672    -0.22840
C1355       C  0.85265426  0.28745289  0.95523055    -0.05680
C1356       C  0.86774676  0.32784186  0.94540021     0.00250
C1357       C  0.86813045  0.33657785  0.91180351    -0.08320
C1358       C  0.85497422  0.30453531  0.88955830    -0.05700
C1359       C  0.83955954  0.26441012  0.89983530     0.00240
C1360       C  0.83724513  0.25564063  0.93307933    -0.08230
C1361       C  0.81548691  0.21236727  0.94485797     0.62150
H1362       H  0.85194694  0.28076509  0.98075403     0.12840
H1363       H  0.85761880  0.31070098  0.86381908     0.12860
C1364       C  0.88188703  0.37893269  0.89895612     0.62380
F1365       F  0.81463338  0.20961513  0.97823632    -0.22780
F1366       F  0.83467136  0.19195123  0.93295952    -0.20110
F1367       F  0.77544267  0.19446044  0.93384839    -0.19790
F1368       F  0.92426976  0.40217733  0.90024764    -0.19840
F1369       F  0.86415274  0.39701684  0.91683119    -0.20160
F1370       F  0.87040909  0.37817091  0.86708710    -0.22840
C1371       C  0.78401972  0.34191409  0.04245951    -0.05680
C1372       C  0.82631764  0.36367606  0.04973889     0.00250
C1373       C  0.83831980  0.36979445  0.08285234    -0.08320
C1374       C  0.80753626  0.35796205  0.10678371    -0.05700
C1375       C  0.76570114  0.33679875  0.09908253     0.00240
C1376       C  0.75374288  0.32658264  0.06677220    -0.08230
C1377       C  0.70951541  0.29684595  0.05865015     0.62150
H1378       H  0.77464575  0.33625053  0.01745647     0.12840
H1379       H  0.81604070  0.36580808  0.13181246     0.12860
C1380       C  0.88271635  0.38801683  0.09386399     0.62380
F1381       F  0.70363295  0.29029229  0.02575340    -0.22780
F1382       F  0.68353708  0.31022901  0.06972567    -0.20110
F1383       F  0.69937910  0.26060078  0.07365453    -0.19790
F1384       F  0.90164164  0.42978570  0.09312538    -0.19840
F1385       F  0.90428244  0.37521459  0.07456644    -0.20160
F1386       F  0.88457432  0.37622772  0.12524358    -0.22840
C1387       C  0.49592391  0.53681172  0.00002229     0.03230
C1388       C  0.53386679  0.53726261  0.00060425    -0.12920
C1389       C  0.53508516  0.50086742  0.99936160     0.00730
C1390       C  0.99813965  0.96394482  0.99759031    -0.11440
C1391       C  0.96015893  0.96312384  0.99686731     0.03230
C1392       C  0.95933626  0.99965594  0.99797757    -0.10860
H1393       H  0.56237066  0.56586730  0.00211115     0.08820
H1394       H  0.99887230  0.93579568  0.99697702     0.06350
H1395       H  0.93008192  0.99915207  0.99759546     0.06200
C1396       C  0.66314071  0.87029659  0.66522792     0.03230
C1397       C  0.69992806  0.86899663  0.66774170    -0.12920
C1398       C  0.69977269  0.83200280  0.66652053     0.00730
C1399       C  0.66220276  0.79585455  0.66292820    -0.11440
C1400       C  0.62507444  0.79659296  0.66047095     0.03230
C1401       C  0.62572271  0.83394803  0.66158353    -0.10860
H1402       H  0.72887910  0.89696984  0.67037773     0.08820
H1403       H  0.66183128  0.76717398  0.66205404     0.06350
H1404       H  0.59715742  0.83467100  0.65987030     0.06200
C1405       C  0.86884050  0.66715168  0.33284747     0.03230
C1406       C  0.86772495  0.70342323  0.33231879    -0.12920
C1407       C  0.83009083  0.70318902  0.33184243     0.00730
C1408       C  0.79302116  0.66598341  0.33145858    -0.11440
C1409       C  0.79350298  0.62921545  0.33168197     0.03230
C1410       C  0.83163192  0.63002123  0.33249897    -0.10860
H1411       H  0.89637237  0.73202845  0.33257300     0.08820
H1412       H  0.76384153  0.66562429  0.33111922     0.06350
H1413       H  0.83233966  0.60185619  0.33288094     0.06200
C1414       C  0.87749729  0.85825879  0.97149178     0.03230
C1415       C  0.91483920  0.89503436  0.97250871    -0.12920
C1416       C  0.92127870  0.92394016  0.99618551     0.00730
C1417       C  0.89107692  0.91489091  0.02004530    -0.11440
C1418       C  0.85625827  0.87615700  0.02211004     0.03230
C1419       C  0.84920070  0.84874364  0.99703700    -0.10860
H1420       H  0.93890282  0.90133034  0.95511218     0.08820
H1421       H  0.89543818  0.93769962  0.03744740     0.06350
H1422       H  0.82153063  0.81937324  0.99753783     0.06200
C1423       C  0.78349260  0.80871738  0.69223374     0.03230
C1424       C  0.81319147  0.82962855  0.66820609    -0.12920
C1425       C  0.80770366  0.85375043  0.64523422     0.00730
C1426       C  0.77073731  0.85505467  0.64561383    -0.11440
C1427       C  0.73917638  0.83155680  0.66778863     0.03230
C1428       C  0.74560164  0.80812670  0.69098639    -0.10860
H1429       H  0.84117085  0.82774861  0.66788256     0.08820
H1430       H  0.76603148  0.87367523  0.62813480     0.06350
H1431       H  0.72136763  0.78986616  0.70809274     0.06200
C1432       C  0.80919897  0.78826734  0.30973645     0.03230
C1433       C  0.80805182  0.75082355  0.30940298    -0.12920
C1434       C  0.82994057  0.74205877  0.33254976     0.00730
C1435       C  0.85314227  0.77124999  0.35585330    -0.11440
C1436       C  0.85260224  0.80796345  0.35748018     0.03230
C1437       C  0.82884362  0.81512838  0.33507687    -0.10860
H1438       H  0.79088171  0.72894264  0.29088169     0.08820
H1439       H  0.87134108  0.76509314  0.37287610     0.06350
H1440       H  0.82683629  0.84250934  0.33650855     0.06200
C1441       C  0.62114549  0.98104573  0.02541950     0.03230
C1442       C  0.58351702  0.98105045  0.02501700    -0.12920
C1443       C  0.57495093  0.00098103  0.99993998     0.00730
C1444       C  0.60387957  0.51997454  0.97486788    -0.11440
C1445       C  0.64076565  0.51859284  0.97475342     0.03230
C1446       C  0.64910161  0.99916807  0.99995383    -0.10860
H1447       H  0.56096453  0.96554123  0.04398135     0.08820
H1448       H  0.59771010  0.53545754  0.95548299     0.06350
H1449       H  0.67794550  0.99877736  0.99999051     0.06200
C1450       C  0.95835232  0.65542799  0.36308738     0.03230
C1451       C  0.91925384  0.65234346  0.36088634    -0.12920
C1452       C  0.90924717  0.66879429  0.33430448     0.00730
C1453       C  0.93878048  0.68869193  0.30985741    -0.11440
C1454       C  0.47769573  0.69171313  0.31180591     0.03230
C1455       C  0.48712159  0.67464061  0.33815515    -0.10860
H1456       H  0.89658312  0.63699899  0.37983891     0.08820
H1457       H  0.93150052  0.70177086  0.28932488     0.06350
H1458       H  0.51674336  0.67594142  0.33905435     0.06200
C1459       C  0.71061994  0.02499864  0.30524042     0.03230
C1460       C  0.68217004  0.01425490  0.33049393    -0.12920
C1461       C  0.68808408  0.54140394  0.35519242     0.00730
C1462       C  0.72451320  0.57926758  0.35560324    -0.11440
C1463       C  0.75426995  0.58999591  0.33090198     0.03230
C1464       C  0.74648942  0.56294963  0.30534998    -0.10860
H1465       H  0.65516976  0.98432654  0.33096427     0.08820
H1466       H  0.72979588  0.60008994  0.37516072     0.06350
H1467       H  0.76836687  0.57161605  0.28557765     0.06200
O1468       O  0.59057806  0.78447378  0.13975730    -0.81690
C1469       C  0.72992047  0.83103109  0.21124249     0.97660
O1470       O  0.69493708  0.80113660  0.20691243    -0.70810
O1471       O  0.61705769  0.75943324  0.19419258    -0.74400
Al1472     Al  0.66714241  0.78740487  0.16808766     1.48980
C1473       C  0.59831565  0.77339625  0.21067212     0.92920
O1474       O  0.64106962  0.88494284  0.19004077    -0.80620
O1475       O  0.69595321  0.90882811  0.13577238    -0.74180
Al1476     Al  0.62059957  0.83478951  0.16482071     1.90120
O1477       O  0.70394118  0.89902167  0.20083962    -0.73250
O1478       O  0.73150909  0.86506446  0.12591617    -0.73100
O1479       O  0.74463530  0.86107619  0.19181549    -0.78760
O1480       O  0.71738313  0.80453865  0.14246771    -0.76960
O1481       O  0.66762460  0.83411979  0.16542557    -1.13100
O1482       O  0.63904613  0.76968973  0.12977022    -0.72290
C1483       C  0.60363714  0.76415614  0.12423894     0.98430
C1484       C  0.67384874  0.90411279  0.20647968     0.94820
Al1485     Al  0.71525551  0.87992655  0.16364010     1.55560
O1486       O  0.60346608  0.80791506  0.20433638    -0.76910
C1487       C  0.73625346  0.83473947  0.12358003     0.98990
C1488       C  0.66339117  0.89573381  0.11914293     0.93870
O1489       O  0.63261974  0.86189513  0.12522966    -0.82230
C1490       C  0.97832622  0.62439933  0.97816634     0.03230
C1491       C  0.99909309  0.65097034  0.00334200    -0.12920
C1492       C  0.51535085  0.63926871  0.02889123     0.00730
C1493       C  0.51184737  0.60069621  0.02854644    -0.11440
C1494       C  0.99469769  0.57516026  0.00190547     0.03230
C1495       C  0.97695935  0.58671860  0.97706220    -0.10860
H1496       H  0.00251180  0.68099821  0.00307336     0.08820
H1497       H  0.52236372  0.59037686  0.04885692     0.06350
H1498       H  0.96236957  0.56661275  0.95691672     0.06200
C1499       C  0.65626499  0.96271495  0.63920079     0.03230
C1500       C  0.67550367  0.48865330  0.66514793    -0.12920
C1501       C  0.68842151  0.47548924  0.69208284     0.00730
C1502       C  0.68186712  0.93566855  0.69264407    -0.11440
C1503       C  0.66465393  0.91003526  0.66599841     0.03230
C1504       C  0.65095518  0.92342073  0.63959198    -0.10950
H1505       H  0.67933696  0.51885847  0.66465575     0.08820
H1506       H  0.68975162  0.92430358  0.71382417     0.06350
H1507       H  0.63613381  0.90337749  0.61945194     0.06200
C1508       C  0.53961620  0.69441113  0.63166098     0.03230
C1509       C  0.57644012  0.73197158  0.63210445    -0.12920
C1510       C  0.58542010  0.75816443  0.65847145     0.00730
C1511       C  0.55687944  0.74695720  0.68386684    -0.11440
C1512       C  0.01873337  0.71108904  0.68242774     0.03230
C1513       C  0.01061056  0.68481948  0.65647225    -0.10860
H1514       H  0.59817086  0.74068617  0.61225799     0.08820
H1515       H  0.56470967  0.76598709  0.70496644     0.06350
H1516       H  0.98179944  0.65640657  0.65580903     0.06200
O1517       O  0.78742586  0.59031032  0.86139436    -0.81690
C1518       C  0.82538685  0.72623167  0.78919255     0.97660
O1519       O  0.79592426  0.69129993  0.79465359    -0.70810
O1520       O  0.75670625  0.61366934  0.80902616    -0.74400
Al1521     Al  0.78542341  0.66401301  0.83416343     1.48980
C1522       C  0.77133741  0.59609827  0.79180480     0.92920
O1523       O  0.88637412  0.64222257  0.80639603    -0.80620
O1524       O  0.91196371  0.69681972  0.85967727    -0.74180
Al1525     Al  0.83672603  0.62126046  0.83412215     1.90120
O1526       O  0.89664995  0.70251533  0.79480858    -0.73250
O1527       O  0.86688798  0.73035193  0.87176086    -0.73100
O1528       O  0.85741622  0.74119285  0.80666032    -0.78760
O1529       O  0.80342532  0.71390277  0.85924458    -0.76960
O1530       O  0.83399954  0.66644226  0.83410084    -1.13100
O1531       O  0.77050794  0.63633908  0.87358814    -0.72290
C1532       C  0.76732163  0.60225347  0.87869046     0.98430
C1533       C  0.90262293  0.67363063  0.78841410     0.94820
Al1534     Al  0.87973235  0.71394048  0.83331627     1.55560
O1535       O  0.80780042  0.60418662  0.79599102    -0.76910
C1536       C  0.83579020  0.73427099  0.87586131     0.98990
C1537       C  0.90031303  0.66527615  0.87701787     0.93870
O1538       O  0.86624457  0.63416782  0.87242555    -0.82230
O1539       O  0.95039257  0.92195427  0.52923418    -0.81690
C1540       C  0.49077107  0.55730287  0.45385672     0.97660
O1541       O  0.96354179  0.52143755  0.45852716    -0.70810
O1542       O  0.92323557  0.94500146  0.47291878    -0.74400
Al1543     Al  0.95128762  0.49519636  0.49816471     1.48980
C1544       C  0.93715134  0.92464940  0.45850110     0.92920
O1545       O  0.55126994  0.97055779  0.47607161    -0.80620
O1546       O  0.57736557  0.52671823  0.52554584    -0.74180
Al1547     Al  0.00081538  0.95101512  0.50250462     1.90120
O1548       O  0.56192138  0.53019399  0.45977776    -0.73250
O1549       O  0.53265782  0.56059122  0.53550989    -0.73100
O1550       O  0.52353168  0.57175225  0.47058593    -0.78760
O1551       O  0.96989647  0.54561069  0.52319657    -0.76960
O1552       O  0.49903752  0.49643637  0.49955223    -1.13100
O1553       O  0.93335328  0.96872928  0.53741594    -0.72290
C1554       C  0.92883980  0.93456290  0.54378095     0.98430
C1555       C  0.56845866  0.50099170  0.45701195     0.94820
Al1556     Al  0.54532831  0.54360852  0.49786830     1.55560
O1557       O  0.97245789  0.93041430  0.46435460    -0.76910
C1558       C  0.00228303  0.56558094  0.54002621     0.98990
C1559       C  0.56410553  0.49683889  0.54514253     0.93870
O1560       O  0.52921562  0.96663989  0.54094136    -0.82230
C1561       C  0.96953092  0.66210708  0.72279644    -0.05680
C1562       C  0.98730283  0.70062432  0.70816637     0.00250
C1563       C  0.97333897  0.72754491  0.71720498    -0.08320
C1564       C  0.94709107  0.71751195  0.74397201    -0.05700
C1565       C  0.93020248  0.67958309  0.76000177     0.00240
C1566       C  0.93951441  0.65024386  0.74747673    -0.08230
C1567       C  0.91777211  0.60660670  0.75894016     0.62150
H1568       H  0.97933092  0.64117710  0.71458106     0.12840
H1569       H  0.93944568  0.73999003  0.75215115     0.12860
C1570       C  0.98397494  0.76583486  0.69798987     0.62380
F1571       F  0.92658481  0.58237912  0.73938289    -0.22780
F1572       F  0.87563031  0.59112160  0.75852482    -0.20110
F1573       F  0.93024403  0.60443593  0.78971614    -0.19790
F1574       F  0.98344387  0.75877094  0.66519038    -0.19840
F1575       F  0.02240079  0.79680558  0.70653199    -0.20160
F1576       F  0.95568234  0.77860795  0.70375279    -0.22840
C1577       C  0.54351607  0.61159450  0.58389606    -0.05680
C1578       C  0.50804575  0.59697348  0.56439130     0.00250
C1579       C  0.98274915  0.61491946  0.56745966    -0.08320
C1580       C  0.99517523  0.64794307  0.58868053    -0.05700
C1581       C  0.53153158  0.66321346  0.60693790     0.00240
C1582       C  0.55581706  0.64424081  0.60496785    -0.08230
C1583       C  0.59423083  0.65753177  0.62539442     0.62150
H1584       H  0.56246270  0.59746757  0.58235864     0.12840
H1585       H  0.97630493  0.66204790  0.59152723     0.12860
C1586       C  0.94285377  0.59940301  0.54894338     0.62380
F1587       F  0.60921159  0.63079653  0.62322404    -0.22780
F1588       F  0.58547113  0.65968164  0.65756736    -0.20110
F1589       F  0.62514523  0.69497628  0.61498219    -0.19790
F1590       F  0.91684771  0.55902119  0.55652844    -0.19840
F1591       F  0.95093205  0.60366637  0.51610075    -0.20160
F1592       F  0.92250791  0.62040564  0.55656382    -0.22840
C1593       C  0.63207548  0.51213519  0.56824526    -0.05680
C1594       C  0.58913137  0.99419547  0.57190574     0.00250
C1595       C  0.57002974  0.96920212  0.59950973    -0.08320
C1596       C  0.59338550  0.95905946  0.61981201    -0.05700
C1597       C  0.63545217  0.97450755  0.61478808     0.00240
C1598       C  0.65581122  0.50269441  0.58928065    -0.08230
C1599       C  0.70171861  0.52294505  0.58260673     0.62150
H1600       H  0.64706192  0.53232680  0.54803798     0.12840
H1601       H  0.57874535  0.93873890  0.64014778     0.12860
C1602       C  0.52506337  0.95282233  0.60805068     0.62380
F1603       F  0.70818772  0.51542369  0.55108344    -0.22780
F1604       F  0.72197436  0.50950039  0.60269219    -0.20110
F1605       F  0.71882897  0.56429209  0.58649831    -0.19790
F1606       F  0.50107883  0.91866347  0.58994504    -0.19840
F1607       F  0.51413794  0.98215808  0.60221703    -0.20160
F1608       F  0.51723882  0.94204625  0.64039266    -0.22840
C1609       C  0.68914466  0.52469069  0.73188539    -0.05680
C1610       C  0.70857564  0.50397098  0.71924767     0.00250
C1611       C  0.74813760  0.51381015  0.73051803    -0.08320
C1612       C  0.76567408  0.54253272  0.75503570    -0.05700
C1613       C  0.74709421  0.56433773  0.76729005     0.00240
C1614       C  0.70805625  0.55545329  0.75519261    -0.08230
C1615       C  0.68679119  0.57870773  0.76581466     0.62150
H1616       H  0.65907694  0.51703890  0.72269340     0.12840
H1617       H  0.79492966  0.54824582  0.76460521     0.12860
C1618       C  0.77316172  0.99575377  0.71629867     0.62380
F1619       F  0.65049704  0.56676712  0.74923631    -0.22780
F1620       F  0.71235691  0.61963583  0.75997420    -0.20110
F1621       F  0.67729768  0.57217287  0.79837365    -0.19790
F1622       F  0.77040335  0.49420739  0.68300921    -0.19840
F1623       F  0.75928364  0.95730426  0.72869474    -0.20160
F1624       F  0.81452085  0.01879474  0.72376880    -0.22840
C1625       C  0.97135958  0.63737568  0.92064082    -0.05680
C1626       C  0.95916496  0.63703866  0.95273183     0.00250
C1627       C  0.92986868  0.64951048  0.95985937    -0.08320
C1628       C  0.91527195  0.66359550  0.93447104    -0.05700
C1629       C  0.92638532  0.66253428  0.90233178     0.00240
C1630       C  0.95412610  0.64843536  0.89518060    -0.08230
C1631       C  0.96133897  0.64042572  0.86076014     0.62150
H1632       H  0.99319522  0.62716527  0.91557233     0.12840
H1633       H  0.89271849  0.67291662  0.93943256     0.12860
C1634       C  0.91192930  0.64657346  0.99347071     0.62380
F1635       F  0.99132325  0.62924360  0.85842411    -0.22780
F1636       F  0.97339093  0.67463654  0.84184965    -0.20110
F1637       F  0.92486564  0.60902990  0.84935186    -0.19790
F1638       F  0.93470597  0.68297891  0.00920259    -0.19840
F1639       F  0.91162182  0.61579529  0.01167388    -0.20160
F1640       F  0.87152728  0.63836751  0.99154533    -0.22840
C1641       C  0.51693704  0.68734325  0.06996985    -0.05680
C1642       C  0.53714922  0.66877284  0.05493359     0.00250
C1643       C  0.57886245  0.68227029  0.06209245    -0.08320
C1644       C  0.59805376  0.71251276  0.08526313    -0.05700
C1645       C  0.57856830  0.73209156  0.10013552     0.00240
C1646       C  0.53705885  0.71938304  0.09204510    -0.08230
C1647       C  0.51396284  0.73932082  0.10603508     0.62150
H1648       H  0.48516838  0.67690812  0.06361630     0.12840
H1649       H  0.62904640  0.72075032  0.09196883     0.12860
C1650       C  0.60397974  0.66621352  0.04483404     0.62380
F1651       F  0.47442371  0.72272150  0.09394397    -0.22780
F1652       F  0.53455214  0.78015075  0.09828346    -0.20110
F1653       F  0.51088816  0.73434196  0.13922271    -0.19790
F1654       F  0.59748229  0.66457484  0.01187125    -0.19840
F1655       F  0.59336186  0.62813046  0.05644157    -0.20160
F1656       F  0.64576332  0.69068620  0.04962879    -0.22840
C1657       C  0.66734297  0.98328681  0.25993680    -0.05680
C1658       C  0.70221664  0.99517658  0.27940476     0.00250
C1659       C  0.72532210  0.97519190  0.27650627    -0.08320
C1660       C  0.71413490  0.94556965  0.25273456    -0.05700
C1661       C  0.67979914  0.93387567  0.23236822     0.00240
C1662       C  0.65530463  0.95255803  0.23656623    -0.08230
C1663       C  0.61690670  0.94052757  0.21678880     0.62150
H1664       H  0.64935051  0.99820283  0.26351889     0.12840
H1665       H  0.73294707  0.93148137  0.24988217     0.12860
C1666       C  0.76095370  0.98411622  0.29899892     0.62380
F1667       F  0.59806595  0.96280123  0.22491130    -0.22780
F1668       F  0.58879102  0.90007373  0.22221616    -0.20110
F1669       F  0.62701061  0.94696025  0.18433257    -0.19790
F1670       F  0.74827905  0.98104472  0.33082618    -0.19840
F1671       F  0.79317998  0.52258419  0.29314409    -0.20160
F1672       F  0.77547552  0.95725211  0.29475436    -0.22840
C1673       C  0.66613739  0.52295026  0.41225299    -0.05680
C1674       C  0.65629754  0.52918219  0.38084534     0.00250
C1675       C  0.61646374  0.52327983  0.37433726    -0.08320
C1676       C  0.58740248  0.51028723  0.39963267    -0.05700
C1677       C  0.59729707  0.50447173  0.43113498     0.00240
C1678       C  0.63747952  0.51168050  0.43782138    -0.08230
C1679       C  0.65100534  0.51122862  0.47217906     0.62150
H1680       H  0.69696625  0.52828832  0.41674379     0.12840
H1681       H  0.55699631  0.50624063  0.39535751     0.12860
C1682       C  0.60537229  0.53289454  0.34137936     0.62380
F1683       F  0.69113562  0.51857738  0.47357175    -0.22780
F1684       F  0.62523477  0.97332851  0.48624201    -0.20110
F1685       F  0.64879728  0.54116872  0.48935074    -0.19790
F1686       F  0.60355327  0.00581500  0.31872166    -0.19840
F1687       F  0.63479707  0.57146906  0.33167634    -0.20160
F1688       F  0.56760440  0.53142295  0.34193943    -0.22840
C1689       C  0.51459980  0.68935577  0.26282427    -0.05680
C1690       C  0.50895630  0.71268769  0.28629459     0.00250
C1691       C  0.53415744  0.75517599  0.28604097    -0.08320
C1692       C  0.56419062  0.77318089  0.26174608    -0.05700
C1693       C  0.56937042  0.75024664  0.23742339     0.00240
C1694       C  0.54434569  0.70741651  0.23803562    -0.08230
C1695       C  0.54802269  0.68089088  0.21244692     0.62150
H1696       H  0.49511684  0.65676218  0.26400442     0.12840
H1697       H  0.58363544  0.80579943  0.26132109     0.12860
C1698       C  0.52920008  0.78131286  0.31133718     0.62380
F1699       F  0.51882462  0.64047860  0.21666416    -0.22780
F1700       F  0.58649785  0.68412193  0.21403118    -0.20110
F1701       F  0.54246107  0.69278468  0.18211653    -0.19790
F1702       F  0.53434136  0.76956222  0.34181850    -0.19840
F1703       F  0.49034126  0.77708338  0.30927056    -0.20160
F1704       F  0.55778199  0.82194927  0.30730031    -0.22840
C1705       C  0.93915057  0.59164942  0.39063667    -0.05680
C1706       C  0.96671955  0.63306005  0.38870764     0.00250
C1707       C  0.50221109  0.65010054  0.40852867    -0.08320
C1708       C  0.50995599  0.62414962  0.42812900    -0.05700
C1709       C  0.98219969  0.58225852  0.43018153     0.00240
C1710       C  0.94536084  0.56586283  0.41119758    -0.08230
C1711       C  0.91238523  0.52136923  0.41125751     0.62150
H1712       H  0.91253103  0.57941124  0.37503591     0.12840
H1713       H  0.53740259  0.63715599  0.44287903     0.12860
C1714       C  0.53197879  0.69521252  0.41077781     0.62380
F1715       F  0.88143717  0.51275131  0.38913124    -0.22780
F1716       F  0.89382213  0.50993726  0.44134463    -0.20110
F1717       F  0.93026047  0.49856836  0.40297859    -0.19790
F1718       F  0.51677565  0.71827555  0.39695989    -0.19840
F1719       F  0.56861964  0.70419226  0.39568082    -0.20160
F1720       F  0.53972395  0.70614584  0.44290982    -0.22840
C1721       C  0.63469175  0.92634705  0.04080696    -0.05680
C1722       C  0.63133858  0.95979538  0.05066792     0.00250
C1723       C  0.64326523  0.97505136  0.08232477    -0.08320
C1724       C  0.65668641  0.95490855  0.10357383    -0.05700
C1725       C  0.65862610  0.92058487  0.09391341     0.00240
C1726       C  0.64846738  0.90661072  0.06182819    -0.08230
C1727       C  0.65411078  0.87223726  0.04943957     0.62150
H1728       H  0.62682133  0.91612056  0.01613915     0.12840
H1729       H  0.66446459  0.96497173  0.12825349     0.12860
C1730       C  0.64215724  0.01245563  0.09347850     0.62380
F1731       F  0.64664253  0.86625062  0.01663369    -0.22780
F1732       F  0.62739848  0.83654866  0.06522799    -0.20110
F1733       F  0.69434091  0.88151188  0.05476875    -0.19790
F1734       F  0.60205569  0.00510346  0.09347788    -0.19840
F1735       F  0.66571995  0.54460221  0.07293705    -0.20160
F1736       F  0.65733234  0.52342178  0.12439997    -0.22840
C1737       C  0.73702248  0.59739767  0.93243815    -0.05680
C1738       C  0.73814492  0.57696684  0.90462033     0.00250
C1739       C  0.70727045  0.53604884  0.90034039    -0.08320
C1740       C  0.67517800  0.51789488  0.92347347    -0.05700
C1741       C  0.67298960  0.53976283  0.94994053     0.00240
C1742       C  0.70444739  0.57997878  0.95478455    -0.08230
C1743       C  0.70296116  0.60434936  0.98327738     0.62150
H1744       H  0.76180377  0.62767966  0.93617184     0.12840
H1745       H  0.65144740  0.98651769  0.92108008     0.12860
C1746       C  0.70785339  0.51199608  0.87145364     0.62380
F1747       F  0.73619145  0.64317974  0.98345503    -0.22780
F1748       F  0.70321255  0.58574315  0.01196526    -0.20110
F1749       F  0.66748171  0.60716672  0.98183395    -0.19790
F1750       F  0.74356608  0.50954654  0.87171133    -0.19840
F1751       F  0.70626880  0.53071511  0.84321390    -0.20160
F1752       F  0.67472092  0.97293261  0.87181194    -0.22840
C1753       C  0.87614935  0.82481843  0.41445957    -0.05680
C1754       C  0.87618653  0.83852715  0.38278697     0.00250
C1755       C  0.89847191  0.88091058  0.37636154    -0.08320
C1756       C  0.91406219  0.90751466  0.40250268    -0.05700
C1757       C  0.91310902  0.89390588  0.43403155     0.00240
C1758       C  0.89738207  0.85192922  0.43959108    -0.08230
C1759       C  0.90619368  0.83593598  0.47055079     0.62150
H1760       H  0.86056156  0.79257325  0.41924955     0.12840
H1761       H  0.93116332  0.93947794  0.39775034     0.12860
C1762       C  0.90957047  0.89962052  0.34265555     0.62380
F1763       F  0.88670705  0.79405488  0.47116817    -0.22780
F1764       F  0.89318804  0.84814551  0.49719474    -0.20110
F1765       F  0.94808422  0.85043334  0.47291200    -0.19790
F1766       F  0.88326036  0.91385205  0.33406552    -0.19840
F1767       F  0.90795202  0.87253794  0.31978430    -0.20160
F1768       F  0.94949101  0.93188584  0.34218406    -0.22840
C1769       C  0.75702429  0.80585225  0.29245267    -0.05680
C1770       C  0.79020303  0.80037029  0.28387795     0.00250
C1771       C  0.80687991  0.81031581  0.25212675    -0.08320
C1772       C  0.78849978  0.82422010  0.22960324    -0.05700
C1773       C  0.75396667  0.82759435  0.23780337     0.00240
C1774       C  0.73813868  0.81885655  0.26980276    -0.08230
C1775       C  0.70130083  0.82297662  0.28002075     0.62150
H1776       H  0.74543787  0.79891887  0.31703095     0.12840
H1777       H  0.79937211  0.83018965  0.20480621     0.12860
C1778       C  0.84355748  0.80598015  0.24186466     0.62380
F1779       F  0.69560648  0.81975480  0.31319603    -0.22780
F1780       F  0.66584872  0.79296761  0.26602979    -0.20110
F1781       F  0.70721054  0.86036060  0.27050596    -0.19790
F1782       F  0.83278320  0.76557011  0.24194329    -0.19840
F1783       F  0.87590582  0.82682633  0.26283808    -0.20160
F1784       F  0.85710857  0.82123063  0.21104844    -0.22840
C1785       C  0.82654338  0.87364456  0.58776200    -0.05680
C1786       C  0.83965120  0.87585298  0.61984942     0.00250
C1787       C  0.88254560  0.89785441  0.62641098    -0.08320
C1788       C  0.91040548  0.91197510  0.60030025    -0.05700
C1789       C  0.89737566  0.91010388  0.56840696     0.00240
C1790       C  0.85463118  0.89306945  0.56226954    -0.08230
C1791       C  0.83851587  0.89767538  0.52974570     0.62150
H1792       H  0.79384509  0.85758609  0.58287237     0.12840
H1793       H  0.94285443  0.92818310  0.60524251     0.12860
C1794       C  0.90054678  0.91005387  0.66008930     0.62380
F1795       F  0.79589880  0.87704940  0.52883037    -0.22780
F1796       F  0.85239356  0.88290226  0.50538771    -0.20110
F1797       F  0.85183775  0.93811217  0.52374659    -0.19790
F1798       F  0.91643659  0.88572513  0.66983115    -0.19840
F1799       F  0.87193604  0.90753739  0.68259376    -0.20160
F1800       F  0.93210199  0.94992774  0.65968555    -0.22840
C1801       C  0.80226031  0.75738338  0.70856776    -0.05680
C1802       C  0.79310795  0.78748055  0.71805387     0.00250
C1803       C  0.79840062  0.79990042  0.75082363    -0.08320
C1804       C  0.81173934  0.78076679  0.77310201    -0.05700
C1805       C  0.81976309  0.75002976  0.76362307     0.00240
C1806       C  0.81543648  0.73826839  0.73087680    -0.08230
C1807       C  0.82571996  0.70637857  0.71950039     0.62150
H1808       H  0.79901563  0.74902807  0.68333529     0.12840
H1809       H  0.81451500  0.78856586  0.79845460     0.12860
C1810       C  0.79037196  0.83325727  0.76237422     0.62380
F1811       F  0.82306566  0.70213151  0.68626301    -0.22780
F1812       F  0.79887906  0.66924603  0.73327555    -0.20110
F1813       F  0.86549435  0.71743255  0.72836763    -0.19790
F1814       F  0.74880500  0.82047418  0.76060775    -0.19840
F1815       F  0.81213477  0.86760510  0.74347060    -0.20160
F1816       F  0.80234085  0.84363338  0.79411743    -0.22840
C1817       C  0.85268318  0.78747988  0.95521232    -0.05680
C1818       C  0.86778698  0.82787037  0.94538186     0.00250
C1819       C  0.86815929  0.83660935  0.91178772    -0.08320
C1820       C  0.85498453  0.80456679  0.88954225    -0.05700
C1821       C  0.83956287  0.76444091  0.89981889     0.00240
C1822       C  0.83725544  0.75566805  0.93306165    -0.08230
C1823       C  0.81548738  0.71239342  0.94483953     0.62150
H1824       H  0.85198135  0.78079152  0.98073532     0.12840
H1825       H  0.85762233  0.81073263  0.86380313     0.12860
C1826       C  0.88192313  0.87896744  0.89894469     0.62380
F1827       F  0.81464128  0.70963921  0.97821767    -0.22780
F1828       F  0.83465628  0.69196604  0.93293376    -0.20110
F1829       F  0.77544074  0.69449804  0.93383714    -0.19790
F1830       F  0.92430630  0.90220588  0.90023671    -0.19840
F1831       F  0.86419497  0.89705403  0.91682410    -0.20160
F1832       F  0.87044539  0.87821268  0.86707636    -0.22840
C1833       C  0.78409275  0.84195953  0.04244979    -0.05680
C1834       C  0.82639440  0.86372515  0.04972092     0.00250
C1835       C  0.83840588  0.86984683  0.08283205    -0.08320
C1836       C  0.80763139  0.85802668  0.10676780    -0.05700
C1837       C  0.76579505  0.83686025  0.09907542     0.00240
C1838       C  0.75382370  0.82662730  0.06676912    -0.08230
C1839       C  0.70959457  0.79687734  0.05865735     0.62150
H1840       H  0.77470952  0.83629071  0.01744907     0.12840
H1841       H  0.81614425  0.86587729  0.13179470     0.12860
C1842       C  0.88280218  0.88805363  0.09383908     0.62380
F1843       F  0.70370011  0.79032072  0.02576168    -0.22780
F1844       F  0.68361201  0.81025015  0.06974078    -0.20110
F1845       F  0.69947059  0.76063351  0.07366037    -0.19790
F1846       F  0.90173756  0.92982320  0.09310930    -0.19840
F1847       F  0.90435803  0.87524700  0.07453403    -0.20160
F1848       F  0.88465880  0.87625190  0.12521465    -0.22840
loop_ 
_geom_bond_atom_site_label_1 
_geom_bond_atom_site_label_2 
_geom_bond_distance 
_geom_bond_site_symmetry_2 
_ccdc_geom_bond_type 
C1            C2   1.410   1_656  A
C1         C1392   1.402   1_545  A
C1         C1032   1.483   1_556  S
C2            C3   1.408   1_554  A
C2            H7   1.084       .  S
C3         C1390   1.403   1_445  A
C3          C519   1.483       .  S
C4            C5   1.404       .  A
C4         C1389   1.403       .  A
C4            H8   1.084       .  S
C5            C6   1.405       .  A
C5           C30   1.479       .  S
C6         C1387   1.403   1_556  A
C6            H9   1.084       .  S
C10          C11   1.404       .  A
C10          C15   1.406       .  A
C10         C117   1.483       .  S
C11          C12   1.404       .  A
C11          H16   1.084       .  S
C12          C13   1.405       .  A
C12          C41   1.482       .  S
C13          C14   1.405       .  A
C13          H17   1.084       .  S
C14          C15   1.409       .  A
C14         C124   1.481       .  S
C15          H18   1.084       .  S
C19          C20   1.399       .  A
C19          C24   1.408       .  A
C19          C66   1.481       .  S
C20          C21   1.402       .  A
C20          H25   1.084       .  S
C21          C22   1.407       .  A
C21          C48   1.481       .  S
C22          C23   1.407       .  A
C22          H26   1.084       .  S
C23          C24   1.411       .  A
C23          C77   1.487       .  S
C24          H27   1.084       .  S
C28          C29   1.404       .  A
C28          C33   1.406       .  A
C28         C432   1.495       .  S
C29          C30   1.406       .  A
C29          H34   1.079       .  S
C30          C31   1.404   1_556  A
C31          C32   1.403       .  A
C31          H35   1.079       .  S
C32          C33   1.405   1_554  A
C32         C448   1.496       .  S
C33          H36   1.083       .  S
C37          C38   1.401       .  A
C37          C42   1.406       .  A
C37         C416   1.485       .  S
C38          C39   1.402       .  A
C38          H43   1.083       .  S
C39          C40   1.407       .  A
C39         C400   1.492       .  S
C40          C41   1.405       .  A
C40          H44   1.084       .  S
C41          C42   1.406       .  A
C42          H45   1.082       .  S
C46          C47   1.403       .  A
C46          C51   1.399       .  A
C46         C384   1.478       .  S
C47          C48   1.404       .  A
C47          H52   1.083       .  S
C48          C49   1.407       .  A
C49          C50   1.408       .  A
C49          H53   1.083       .  S
C50          C51   1.402       .  A
C50         C368   1.493       .  S
C51          H54   1.082       .  S
C55          C56   1.406       .  A
C55          C60   1.397   1_554  A
C55         C336   1.480       .  S
C56          C57   1.410   1_554  A
C56          H61   1.083       .  S
C57         C520   1.408       .  A
C57         C465   1.483       .  S
C58          C59   1.405       .  A
C58         C519   1.408       .  A
C58          H62   1.083       .  S
C59         C522   1.394   1_545  A
C59         C355   1.475       .  S
C60         C521   1.394       .  A
C60          H63   1.085       .  S
C64          C65   1.410       .  A
C64         C993   1.401       .  A
C64         C320   1.483       .  S
C65          C66   1.403       .  A
C65          H70   1.084       .  S
C66          C67   1.405       .  A
C67         C992   1.404       .  A
C67          H71   1.084       .  S
C68          C69   1.399       .  A
C68         C991   1.404       .  A
C68         C304   1.476   1_655  S
C69         C988   1.401       .  A
C69          H72   1.084   1_655  S
C73          C74   1.396       .  A
C73         C540   1.406       .  A
C73         C272   1.480       .  S
C74         C537   1.396       .  A
C74          H79   1.084       .  S
C75          C76   1.409       .  A
C75         C536   1.396       .  A
C75         C288   1.482       .  S
C76          C77   1.410       .  A
C76          H80   1.084       .  S
C77          C78   1.407       .  A
C78         C535   1.406       .  A
C78          H81   1.083       .  S
O82          C97   1.274       .  A
O82         Al90   1.974       .  S
C83         C387   1.468       .  S
C83          O93   1.272       .  A
C83          O84   1.251       .  A
O84         Al86   1.849       .  S
O85          C87   1.267       .  A
O85         Al86   1.951       .  S
Al86         O94   1.961       .  S
Al86         O96   1.843       .  S
Al86         O95   1.769       .  S
C87         C307   1.487       .  S
C87         O100   1.254       .  A
O88          C98   1.274       .  A
O88         Al90   1.973       .  S
O89         C102   1.270       .  A
O89         Al99   1.958       .  S
Al90        O103   1.863       .  S
Al90        O100   1.860       .  S
Al90         O95   1.770       .  S
O91          C98   1.253       .  A
O91         Al99   1.841       .  S
O92         C101   1.254       .  A
O92         Al99   1.863       .  S
O93         Al99   1.964       .  S
O94         C101   1.270       .  A
O95         Al99   1.770       .  S
O96          C97   1.255       .  A
C97         C259   1.499       .  S
C98         C275   1.498       .  S
C101        C451   1.469       .  S
C102        C339   1.474       .  S
C102        O103   1.253       .  A
C104        C105   1.396   1_556  A
C104        C109   1.409       .  A
C104        C240   1.481       .  S
C105       C1030   1.398       .  A
C105        H110   1.084       .  S
C106        C107   1.406       .  A
C106       C1029   1.398   1_455  A
C106        C256   1.483       .  S
C107       C1032   1.404   1_455  A
C107        H111   1.080       .  S
C108        C109   1.407   1_554  A
C108       C1031   1.404       .  A
C108        C925   1.483   1_554  S
C109        H112   1.084       .  S
C113        C118   1.406       .  A
C113        C576   1.397       .  A
C113        C211   1.474       .  S
C114        C115   1.402       .  A
C114        C575   1.397       .  A
C114        H119   1.084   1_565  S
C115        C578   1.408       .  A
C115        C224   1.489   1_565  S
C116        C117   1.406       .  A
C116        C577   1.408       .  A
C116        H120   1.080       .  S
C117        C118   1.404       .  A
C118        H121   1.084       .  S
C122        C123   1.410       .  A
C122       C1051   1.400       .  A
C122        C195   1.485       .  S
C123        C124   1.407       .  A
C123        H128   1.082       .  S
C124        C125   1.401       .  A
C125       C1050   1.404       .  A
C125        H129   1.082       .  S
C126        C127   1.399       .  A
C126       C1049   1.404       .  A
C126        C176   1.483       .  S
C127       C1046   1.400       .  A
C127        H130   1.084       .  S
O131        C146   1.273       .  A
O131       Al139   1.969       .  S
C132        C419   1.470       .  S
C132        O142   1.271       .  A
C132        O133   1.254       .  A
O133       Al135   1.866       .  S
O134        C136   1.272       .  A
O134       Al135   1.973       .  S
Al135       O143   1.972       .  S
Al135       O145   1.865       .  S
Al135       O144   1.771       .  S
C136        C227   1.498       .  S
C136        O149   1.252       .  A
O137        C147   1.272       .  A
O137       Al139   1.976       .  S
O138        C151   1.271       .  A
O138       Al148   1.960       .  S
Al139       O152   1.860       .  S
Al139       O149   1.847       .  S
Al139       O144   1.770       .  S
O140        C147   1.253       .  A
O140       Al148   1.845       .  S
O141        C150   1.254       .  A
O141       Al148   1.859       .  S
O142       Al148   1.958       .  S
O143        C150   1.273       .  A
O144       Al148   1.768       .  S
O145        C146   1.257       .  A
C146        C352   1.486       .  S
C147        C179   1.502       .  S
C150        C435   1.474       .  S
C151        C243   1.472       .  S
C151        O152   1.252       .  A
O153        C168   1.274       .  A
O153       Al161   1.978       .  S
C154       C1247   1.503       .  S
C154        O164   1.274   1_655  A
C154       O1079   1.247       .  A
O155       C1078   1.247       .  A
O155       Al157   1.852   1_545  S
O156        C158   1.275       .  A
O156       Al619   1.973       .  S
Al157       O165   1.983   1_565  S
Al157       O618   1.975       .  S
Al157       O629   1.857       .  S
Al157      O1090   1.763       .  S
C158        C371   1.475       .  S
C158        O171   1.250       .  A
O159        C631   1.275       .  A
O159      Al1085   1.973       .  S
O160        C173   1.274   1_545  A
O160       Al170   1.980       .  S
Al161       O171   1.853       .  S
Al161      O1083   1.973       .  S
Al161      O1098   1.846       .  S
Al161      O1552   1.768       .  S
O162        C169   1.255       .  A
O162       Al170   1.856       .  S
O163       C1096   1.254       .  A
O163       Al170   1.838       .  S
O164       Al170   1.984       .  S
O165        C172   1.276       .  A
O166       Al170   1.772   1_665  S
O166      Al1081   1.763       .  S
O166      Al1547   1.769   1_655  S
O167        C168   1.250       .  A
O167       Al619   1.856       .  S
C168        C403   1.478       .  S
C169        C291   1.475       .  S
C169        O621   1.275   1_545  A
C172       C1116   1.499       .  S
C172       O1087   1.254       .  A
C173        C670   1.490       .  S
C173        O636   1.251       .  A
O174        C635   1.251       .  A
O174      Al1085   1.846       .  S
C175        C176   1.406       .  A
C175        C180   1.411       .  A
C175        H182   1.083       .  S
C176        C177   1.411       .  A
C177        C178   1.398       .  A
C177        C184   1.524       .  S
C178        C179   1.415       .  A
C178        H183   1.082       .  S
C179        C180   1.422       .  A
C180        C181   1.514       .  S
C181        F185   1.385       .  S
C181        F186   1.382       .  S
C181        F187   1.374       .  S
C184        F188   1.384       .  S
C184        F189   1.381       .  S
C184        F190   1.385       .  S
C191        C192   1.414       .  A
C191        C196   1.401       .  A
C191        H198   1.082       .  S
C192       C1117   1.419   1_455  A
C192       C1096   1.499       .  S
C193        C194   1.414       .  A
C193       C1116   1.419       .  A
C193        C200   1.517       .  S
C194       C1119   1.409       .  A
C194        H199   1.083       .  S
C195        C196   1.413       .  A
C195       C1118   1.409   1_455  A
C196        C197   1.525       .  S
C197        F201   1.385       .  S
C197        F202   1.383       .  S
C197        F203   1.381       .  S
C200        F204   1.384       .  S
C200        F205   1.383       .  S
C200        F206   1.384       .  S
C207        C212   1.411       .  A
C207        C670   1.404   1_545  A
C207        H214   1.080       .  S
C208        C209   1.425       .  A
C208        C669   1.404       .  A
C208        C635   1.490       .  S
C209        C210   1.397       .  A
C209        C216   1.514       .  S
C210        C211   1.393       .  A
C210        H215   1.085       .  S
C211        C674   1.419       .  A
C212        C673   1.419   1_545  A
C212        C213   1.516       .  S
C213        F217   1.384       .  S
C213        F218   1.381       .  S
C213        F219   1.383       .  S
C216        F220   1.383       .  S
C216        F221   1.384       .  S
C216        F222   1.386       .  S
C223        C224   1.410       .  A
C223        C228   1.413       .  A
C223        H230   1.083       .  S
C224        C225   1.415       .  A
C225        C226   1.400       .  A
C225        C694   1.525   1_545  S
C226        C227   1.413       .  A
C226        H231   1.081       .  S
C227        C228   1.418       .  A
C228        C229   1.517       .  S
C229        F233   1.385       .  S
C229        F234   1.383       .  S
C229        F235   1.382       .  S
C232        C687   1.525       .  S
C232        F237   1.381       .  S
C232        F238   1.385       .  S
C232        F698   1.383       .  S
F236        C694   1.383       .  S
C239        C240   1.401       .  A
C239        C244   1.404       .  A
C239        H246   1.083       .  S
C240        C241   1.422       .  A
C241        C242   1.406       .  A
C241        C248   1.522       .  S
C242        C243   1.399       .  A
C242        H247   1.083       .  S
C243        C244   1.414       .  A
C244        C245   1.510       .  S
C245        F249   1.384       .  S
C245        F250   1.383       .  S
C245        F251   1.380       .  S
C248        F252   1.382   1_556  S
C248        F253   1.383   1_556  S
C248        F254   1.385       .  S
C255        C256   1.409       .  A
C255        C260   1.412       .  A
C255        H262   1.083   1_455  S
C256        C257   1.412       .  A
C257        C258   1.399       .  A
C257        C264   1.527       .  S
C258        C259   1.415       .  A
C258        H263   1.077       .  S
C259        C260   1.419       .  A
C260        C261   1.518       .  S
C261        F265   1.385   1_455  S
C261        F266   1.383       .  S
C261        F267   1.383       .  S
C264        F268   1.384       .  S
C264        F269   1.381       .  S
C264        F270   1.381       .  S
C271        C272   1.407       .  A
C271        C276   1.413       .  A
C271        H278   1.083       .  S
C272        C273   1.409       .  A
C273        C274   1.400       .  A
C273        C280   1.523       .  S
C274        C275   1.415       .  A
C274        H279   1.080       .  S
C275        C276   1.420       .  A
C276        C277   1.517       .  S
C277        F281   1.384       .  S
C277        F282   1.383       .  S
C277        F283   1.382       .  S
C280        F284   1.384       .  S
C280        F286   1.385       .  S
C280        F747   1.381       .  S
F285        C742   1.381   1_545  S
C287        C288   1.403       .  A
C287        C292   1.409       .  A
C287        H294   1.083       .  S
C288        C289   1.418       .  A
C289        C290   1.406       .  A
C289        C296   1.522       .  S
C290        C291   1.403       .  A
C290        H295   1.084       .  S
C291        C292   1.415       .  A
C292        C293   1.514       .  S
C293        F297   1.384       .  S
C293        F299   1.381       .  S
C293        F760   1.383   1_545  S
C296        F301   1.384       .  S
C296        F302   1.384       .  S
C296        F762   1.381       .  S
F298        C755   1.383       .  S
F300        C758   1.381       .  S
C303        C304   1.403       .  A
C303        C308   1.411       .  A
C303        H310   1.083   1_455  S
C304        C305   1.410       .  A
C305        C306   1.402       .  A
C305        C312   1.520       .  S
C306        C307   1.409       .  A
C306        H311   1.083       .  S
C307        C308   1.420       .  A
C308        C309   1.518       .  S
C309        F313   1.384       .  S
C309        F314   1.383       .  S
C309        F315   1.383       .  S
C312        F316   1.382       .  S
C312        F317   1.383   1_455  S
C312        F318   1.384       .  S
C319        C320   1.391       .  A
C319        C324   1.398       .  A
C319        H326   1.083       .  S
C320       C1245   1.420       .  A
C321        C322   1.412       .  A
C321       C1244   1.420   1_455  A
C321        C328   1.516       .  S
C322       C1247   1.407   1_455  A
C322        H327   1.084       .  S
C323        C324   1.436       .  A
C323       C1246   1.407       .  A
C323       C1078   1.503       .  S
C324        C325   1.518       .  S
C325        F329   1.386       .  S
C325        F330   1.383       .  S
C325        F331   1.374       .  S
C328        F332   1.381       .  S
C328        F333   1.382       .  S
C328        F334   1.384       .  S
C335        C336   1.400       .  A
C335        C340   1.401       .  A
C335        H342   1.084       .  S
C336        C337   1.418       .  A
C337        C338   1.410       .  A
C337        C344   1.517       .  S
C338        C339   1.402       .  A
C338        H343   1.082       .  S
C339        C340   1.415       .  A
C340        C341   1.514       .  S
C341        F345   1.385       .  S
C341        F346   1.382       .  S
C341        F347   1.382       .  S
C344        F348   1.382       .  S
C344        F811   1.382       .  S
C344        F812   1.385       .  S
F349        C806   1.382       .  S
F350        C806   1.385       .  S
C351        C352   1.405       .  A
C351        C356   1.401       .  A
C351        H358   1.074       .  S
C352        C353   1.417       .  A
C353        C354   1.413       .  A
C353        C360   1.516       .  S
C354        C355   1.405       .  A
C354        H821   1.083   1_545  S
C355        C356   1.409       .  A
C356        C357   1.521       .  S
C357        F361   1.380       .  S
C357        F362   1.382   1_556  S
C357        F363   1.383       .  S
H359        C816   1.083       .  S
C360        F364   1.383       .  S
C360        F365   1.382       .  S
C360        F828   1.384   1_545  S
F366        C822   1.384       .  S
C367        C368   1.408       .  A
C367        C372   1.407       .  A
C367        H374   1.082       .  S
C368        C369   1.424       .  A
C369        C370   1.403       .  A
C369        C376   1.523       .  S
C370        C371   1.397       .  A
C370        H375   1.076       .  S
C371        C372   1.418       .  A
C372        C373   1.522       .  S
C373        F377   1.384       .  S
C373        F378   1.376       .  S
C373        F379   1.382       .  S
C376        F380   1.383       .  S
C376        F381   1.382       .  S
C376        F382   1.385       .  S
C383        C384   1.400       .  A
C383        C388   1.402       .  A
C383        H390   1.083       .  S
C384        C385   1.420       .  A
C385        C386   1.407       .  A
C385        C392   1.519       .  S
C386        C387   1.399       .  A
C386        H391   1.084       .  S
C387        C388   1.418       .  A
C388        C389   1.519       .  S
C389        F393   1.385       .  S
C389        F394   1.381       .  S
C389        F395   1.380       .  S
C392        F396   1.382       .  S
C392        F397   1.382       .  S
C392        F398   1.385       .  S
C399        C400   1.406       .  A
C399        C404   1.406       .  A
C399        H406   1.082       .  S
C400        C401   1.421       .  A
C401        C402   1.405       .  A
C401        C408   1.522       .  S
C402        C403   1.399       .  A
C402        H407   1.075       .  S
C403        C404   1.420       .  A
C404        C405   1.522       .  S
C405        F409   1.384       .  S
C405        F410   1.375       .  S
C405        F411   1.382       .  S
C408        F412   1.383       .  S
C408        F413   1.383       .  S
C408        F414   1.385       .  S
C415        C416   1.404       .  A
C415        C420   1.405       .  A
C415        H422   1.083       .  S
C416        C417   1.421       .  A
C417        C418   1.408       .  A
C417        C424   1.519       .  S
C418        C419   1.400       .  A
C418        H423   1.084       .  S
C419        C420   1.415       .  A
C420        C421   1.518       .  S
C421        F425   1.385       .  S
C421        F426   1.382       .  S
C421        F427   1.381       .  S
C424        F428   1.381       .  S
C424        F429   1.383       .  S
C424        F430   1.385       .  S
C431        C432   1.405       .  A
C431        C436   1.400       .  A
C431        H438   1.083       .  S
C432        C433   1.427       .  A
C433        C434   1.413       .  A
C433        C440   1.519       .  S
C434        C435   1.400       .  A
C434        H439   1.084       .  S
C435        C436   1.407       .  A
C436        C437   1.506       .  S
C437        F441   1.385       .  S
C437        F442   1.382       .  S
C437        F443   1.382       .  S
C440        F444   1.381       .  S
C440        F445   1.383       .  S
C440        F446   1.385       .  S
C447        C448   1.409       .  A
C447        C452   1.402       .  A
C447        H454   1.082       .  S
C448        C449   1.428       .  A
C449        C450   1.408       .  A
C449        C456   1.520       .  S
C450        C451   1.398       .  A
C450        H455   1.084       .  S
C451        C452   1.407       .  A
C452        C453   1.510       .  S
C453        F457   1.385       .  S
C453        F458   1.378       .  S
C453        F459   1.378       .  S
C456        F460   1.382       .  S
C456        F461   1.383       .  S
C456        F462   1.385       .  S
C463        C464   1.410   1_655  A
C463        C930   1.403   1_554  A
C463       C1494   1.483       .  S
C464        C465   1.407   1_554  A
C464        H469   1.084       .  S
C465        C928   1.403   1_455  A
C466        C927   1.403   1_565  A
C466        C467   1.404       .  A
C466        H470   1.084       .  S
C467        C468   1.405       .  A
C467        C492   1.479       .  S
C468        C925   1.402   1_565  A
C468        H471   1.084       .  S
C472        C473   1.404       .  A
C472        C477   1.406       .  A
C472        C579   1.484       .  S
C473        C474   1.404       .  A
C473        H478   1.084       .  S
C474        C475   1.405       .  A
C474        C503   1.482       .  S
C475        C476   1.405       .  A
C475        H479   1.084       .  S
C476        C477   1.409       .  A
C476        C586   1.482       .  S
C477        H480   1.084       .  S
C481        C482   1.400       .  A
C481        C486   1.408       .  A
C481        C528   1.481       .  S
C482        C483   1.402       .  A
C482        H487   1.084       .  S
C483        C484   1.407       .  A
C483        C510   1.480       .  S
C484        C485   1.406       .  A
C484        H488   1.084       .  S
C485        C486   1.410       .  A
C485        C539   1.486       .  S
C486        H489   1.084       .  S
C490        C491   1.404       .  A
C490        C495   1.406       .  A
C490        C894   1.495       .  S
C491        C492   1.406       .  A
C491        H496   1.080       .  S
C492        C493   1.404   1_556  A
C493        C494   1.403       .  A
C493        H497   1.079       .  S
C494        C495   1.405   1_554  A
C494        C910   1.496       .  S
C495        H498   1.083       .  S
C499        C500   1.401       .  A
C499        C504   1.406       .  A
C499        C878   1.485       .  S
C500        C501   1.402       .  A
C500        H505   1.083       .  S
C501        C502   1.407       .  A
C501        C862   1.492       .  S
C502        C503   1.405       .  A
C502        H506   1.084       .  S
C503        C504   1.406       .  A
C504        H507   1.082       .  S
C508        C509   1.402       .  A
C508        C513   1.399       .  A
C508        C846   1.478       .  S
C509        C510   1.404       .  A
C509        H514   1.083       .  S
C510        C511   1.407       .  A
C511        C512   1.407       .  A
C511        H515   1.083       .  S
C512        C513   1.402       .  A
C512        C830   1.493       .  S
C513        H516   1.082       .  S
C517        C518   1.406       .  A
C517        C522   1.396   1_554  A
C517        C798   1.479       .  S
C518        C519   1.410   1_564  A
C518        H523   1.083       .  S
C520        C521   1.405       .  A
C520        H524   1.084       .  S
C521        C817   1.475       .  S
C522        H525   1.085       .  S
C526        C527   1.410       .  A
C526       C1455   1.401       .  A
C526        C782   1.484       .  S
C527        C528   1.403       .  A
C527        H532   1.084       .  S
C528        C529   1.404       .  A
C529       C1454   1.403       .  A
C529        H533   1.084       .  S
C530       C1453   1.403       .  A
C530        C531   1.399       .  A
C530        C766   1.475   1_655  S
C531       C1450   1.401       .  A
C531        H534   1.084   1_655  S
C535        C536   1.396       .  A
C535        C734   1.480   1_545  S
C536        H541   1.084   1_545  S
C537        C538   1.409       .  A
C537        C750   1.481       .  S
C538        C539   1.410       .  A
C538        H542   1.084       .  S
C539        C540   1.407       .  A
C540        H543   1.083       .  S
O544        C559   1.274       .  A
O544       Al552   1.974       .  S
C545        C849   1.468       .  S
C545        O555   1.272       .  A
C545        O546   1.251       .  A
O546       Al548   1.849       .  S
O547        C549   1.267       .  A
O547       Al548   1.951       .  S
Al548       O556   1.960       .  S
Al548       O558   1.843       .  S
Al548       O557   1.769       .  S
C549        C769   1.487       .  S
C549        O562   1.254       .  A
O550        C560   1.274       .  A
O550       Al552   1.973       .  S
O551        C564   1.270       .  A
O551       Al561   1.958       .  S
Al552       O565   1.863       .  S
Al552       O562   1.860       .  S
Al552       O557   1.770       .  S
O553        C560   1.253       .  A
O553       Al561   1.841       .  S
O554        C563   1.254       .  A
O554       Al561   1.863       .  S
O555       Al561   1.964       .  S
O556        C563   1.270       .  A
O557       Al561   1.770       .  S
O558        C559   1.255       .  A
C559        C721   1.499       .  S
C560        C737   1.498       .  S
C563        C913   1.469       .  S
C564        C801   1.474       .  S
C564        O565   1.253       .  A
C566        C567   1.396   1_556  A
C566        C571   1.408       .  A
C566        C702   1.481       .  S
C567       C1492   1.398       .  A
C567        H572   1.084       .  S
C568       C1491   1.398   1_455  A
C568        C569   1.406       .  A
C568        C718   1.483       .  S
C569       C1494   1.404   1_455  A
C569        H573   1.080       .  S
C570       C1493   1.404       .  A
C570        C571   1.407   1_554  A
C570       C1387   1.483       .  S
C571        H574   1.084       .  S
C575        C580   1.406       .  A
C575        C673   1.474       .  S
C576        C577   1.402       .  A
C576        H581   1.084       .  S
C577        C686   1.489       .  S
C578        C579   1.406       .  A
C578        H582   1.080       .  S
C579        C580   1.404       .  A
C580        H583   1.084       .  S
C584        C585   1.410       .  A
C584       C1513   1.400       .  A
C584        C657   1.485       .  S
C585        C586   1.407       .  A
C585        H590   1.082       .  S
C586        C587   1.401       .  A
C587       C1512   1.404       .  A
C587        H591   1.082       .  S
C588       C1511   1.404       .  A
C588        C589   1.399       .  A
C588        C638   1.483       .  S
C589       C1508   1.400       .  A
C589        H592   1.084       .  S
O593        C608   1.273       .  A
O593       Al601   1.969       .  S
C594        C881   1.471       .  S
C594        O604   1.271       .  A
C594        O595   1.254       .  A
O595       Al597   1.866       .  S
O596        C598   1.272       .  A
O596       Al597   1.973       .  S
Al597       O605   1.972       .  S
Al597       O607   1.865       .  S
Al597       O606   1.771       .  S
C598        C689   1.498       .  S
C598        O611   1.252       .  A
O599        C609   1.272       .  A
O599       Al601   1.977       .  S
O600        C613   1.271       .  A
O600       Al610   1.960       .  S
Al601       O614   1.859       .  S
Al601       O611   1.847       .  S
Al601       O606   1.770       .  S
O602        C609   1.253       .  A
O602       Al610   1.845       .  S
O603        C612   1.254       .  A
O603       Al610   1.859       .  S
O604       Al610   1.959       .  S
O605        C612   1.273       .  A
O606       Al610   1.768       .  S
O607        C608   1.257       .  A
C608        C814   1.486       .  S
C609        C641   1.502       .  S
C612        C897   1.474       .  S
C613        C705   1.471       .  S
C613        O614   1.252       .  A
O615        C630   1.274       .  A
O615       Al623   1.977       .  S
C616       C1709   1.502       .  S
C616        O626   1.274   1_655  A
C616       O1541   1.246       .  A
O617       C1540   1.246       .  A
O617       Al619   1.850       .  S
O618        C620   1.275       .  A
Al619       O627   1.984       .  S
Al619      O1552   1.763       .  S
C620        C833   1.476       .  S
C620        O633   1.251       .  A
O621      Al1547   1.974       .  S
O622        C635   1.274       .  A
O622       Al632   1.980       .  S
Al623      O1545   1.974       .  S
Al623      O1560   1.847       .  S
Al623       O633   1.853       .  S
Al623      O1090   1.769       .  S
O624        C631   1.255       .  A
O624       Al632   1.857       .  S
O625       C1558   1.253       .  A
O625       Al632   1.838       .  S
O626       Al632   1.985       .  S
O627        C634   1.276       .  A
O628      Al1543   1.763       .  S
O628      Al1085   1.768   1_655  S
O628       Al632   1.772   1_655  S
O629        C630   1.250       .  A
C630        C865   1.479       .  S
C631        C753   1.475       .  S
C634       C1578   1.499       .  S
C634       O1549   1.253       .  A
O636      Al1547   1.847       .  S
C637        C638   1.406       .  A
C637        C642   1.411       .  A
C637        H644   1.083       .  S
C638        C639   1.411       .  A
C639        C640   1.398       .  A
C639        C646   1.524       .  S
C640        C641   1.415       .  A
C640        H645   1.082       .  S
C641        C642   1.422       .  A
C642        C643   1.514       .  S
C643        F647   1.385       .  S
C643        F648   1.382       .  S
C643        F649   1.374       .  S
C646        F650   1.384       .  S
C646        F651   1.381       .  S
C646        F652   1.385       .  S
C653        C654   1.414       .  A
C653        C658   1.401       .  A
C653        H660   1.082       .  S
C654       C1579   1.419   1_455  A
C654       C1558   1.499       .  S
C655       C1578   1.419       .  A
C655        C656   1.414       .  A
C655        C662   1.517       .  S
C656       C1581   1.409       .  A
C656        H661   1.083       .  S
C657       C1580   1.409   1_455  A
C657        C658   1.413       .  A
C658        C659   1.525       .  S
C659        F663   1.385       .  S
C659        F664   1.383       .  S
C659        F665   1.381       .  S
C662        F666   1.384       .  S
C662        F667   1.383       .  S
C662        F668   1.384       .  S
C669        C674   1.411       .  A
C669        H676   1.080       .  S
C670        C671   1.425       .  A
C671        C672   1.397       .  A
C671        C678   1.515       .  S
C672        C673   1.393       .  A
C672        H677   1.085       .  S
C674        C675   1.516       .  S
C675        F679   1.384       .  S
C675        F680   1.381       .  S
C675        F681   1.383       .  S
C678        F682   1.383       .  S
C678        F683   1.384       .  S
C678        F684   1.386       .  S
C685        C686   1.410       .  A
C685        C690   1.413       .  A
C685        H692   1.083       .  S
C686        C687   1.415       .  A
C687        C688   1.400       .  A
C688        C689   1.413       .  A
C688        H693   1.081       .  S
C689        C690   1.418       .  A
C690        C691   1.517       .  S
C691        F695   1.384       .  S
C691        F696   1.383       .  S
C691        F697   1.382       .  S
C694        F699   1.381       .  S
C694        F700   1.385   1_565  S
C701        C702   1.401       .  A
C701        C706   1.404       .  A
C701        H708   1.083       .  S
C702        C703   1.422       .  A
C703        C704   1.406       .  A
C703        C710   1.522       .  S
C704        C705   1.399       .  A
C704        H709   1.083       .  S
C705        C706   1.414       .  A
C706        C707   1.510       .  S
C707        F711   1.384       .  S
C707        F712   1.383       .  S
C707        F713   1.380       .  S
C710        F714   1.382   1_556  S
C710        F715   1.383   1_556  S
C710        F716   1.385       .  S
C717        C718   1.409       .  A
C717        C722   1.412       .  A
C717        H724   1.083   1_455  S
C718        C719   1.412       .  A
C719        C720   1.399       .  A
C719        C726   1.527       .  S
C720        C721   1.415       .  A
C720        H725   1.077       .  S
C721        C722   1.419       .  A
C722        C723   1.518       .  S
C723        F727   1.385   1_455  S
C723        F728   1.383       .  S
C723        F729   1.383       .  S
C726        F730   1.384       .  S
C726        F731   1.381       .  S
C726        F732   1.381       .  S
C733        C734   1.407       .  A
C733        C738   1.413       .  A
C733        H740   1.083       .  S
C734        C735   1.409       .  A
C735        C736   1.400       .  A
C735        C742   1.523       .  S
C736        C737   1.415       .  A
C736        H741   1.080       .  S
C737        C738   1.420       .  A
C738        C739   1.517       .  S
C739        F743   1.384       .  S
C739        F744   1.383       .  S
C739        F745   1.382       .  S
C742        F746   1.384       .  S
C742        F748   1.385       .  S
C749        C750   1.403       .  A
C749        C754   1.409       .  A
C749        H756   1.083       .  S
C750        C751   1.418       .  A
C751        C752   1.406       .  A
C751        C758   1.522       .  S
C752        C753   1.403       .  A
C752        H757   1.084       .  S
C753        C754   1.415       .  A
C754        C755   1.514       .  S
C755        F759   1.384       .  S
C755        F761   1.381       .  S
C758        F763   1.384       .  S
C758        F764   1.384       .  S
C765        C766   1.403       .  A
C765        C770   1.411       .  A
C765        H772   1.083   1_455  S
C766        C767   1.410       .  A
C767        C768   1.402       .  A
C767        C774   1.520       .  S
C768        C769   1.409       .  A
C768        H773   1.083       .  S
C769        C770   1.420       .  A
C770        C771   1.518       .  S
C771        F775   1.384       .  S
C771        F776   1.383       .  S
C771        F777   1.383       .  S
C774        F778   1.382       .  S
C774        F779   1.383   1_455  S
C774        F780   1.384       .  S
C781        C782   1.392       .  A
C781        C786   1.399       .  A
C781        H788   1.083       .  S
C782       C1707   1.419       .  A
C783       C1706   1.419   1_455  A
C783        C784   1.411       .  A
C783        C790   1.516       .  S
C784       C1709   1.407   1_455  A
C784        H789   1.084       .  S
C785       C1708   1.407       .  A
C785        C786   1.437       .  A
C785       C1540   1.502       .  S
C786        C787   1.521       .  S
C787        F791   1.385       .  S
C787        F792   1.383       .  S
C787        F793   1.374       .  S
C790        F794   1.381       .  S
C790        F795   1.382       .  S
C790        F796   1.384       .  S
C797        C798   1.400       .  A
C797        C802   1.401       .  A
C797        H804   1.084       .  S
C798        C799   1.418       .  A
C799        C800   1.410       .  A
C799        C806   1.517   1_565  S
C800        C801   1.402       .  A
C800        H805   1.082       .  S
C801        C802   1.415       .  A
C802        C803   1.514       .  S
C803        F807   1.385       .  S
C803        F808   1.382       .  S
C803        F809   1.382       .  S
C806        F810   1.382       .  S
C813        C814   1.405       .  A
C813        C818   1.401       .  A
C813        H820   1.074       .  S
C814        C815   1.417       .  A
C815        C816   1.413       .  A
C815        C822   1.516       .  S
C816        C817   1.405       .  A
C817        C818   1.409       .  A
C818        C819   1.521       .  S
C819        F823   1.380       .  S
C819        F824   1.382   1_556  S
C819        F825   1.383       .  S
C822        F826   1.383       .  S
C822        F827   1.382       .  S
C829        C830   1.408       .  A
C829        C834   1.408       .  A
C829        H836   1.082       .  S
C830        C831   1.423       .  A
C831        C832   1.402       .  A
C831        C838   1.523       .  S
C832        C833   1.396       .  A
C832        H837   1.073       .  S
C833        C834   1.418       .  A
C834        C835   1.521       .  S
C835        F839   1.384       .  S
C835        F840   1.376       .  S
C835        F841   1.382       .  S
C838        F842   1.383       .  S
C838        F843   1.382       .  S
C838        F844   1.385       .  S
C845        C846   1.400       .  A
C845        C850   1.402       .  A
C845        H852   1.083       .  S
C846        C847   1.420       .  A
C847        C848   1.407       .  A
C847        C854   1.519       .  S
C848        C849   1.399       .  A
C848        H853   1.084       .  S
C849        C850   1.418       .  A
C850        C851   1.519       .  S
C851        F855   1.385       .  S
C851        F856   1.381       .  S
C851        F857   1.380       .  S
C854        F858   1.381       .  S
C854        F859   1.382       .  S
C854        F860   1.385       .  S
C861        C862   1.406       .  A
C861        C866   1.406       .  A
C861        H868   1.082       .  S
C862        C863   1.421       .  A
C863        C864   1.405       .  A
C863        C870   1.522       .  S
C864        C865   1.399       .  A
C864        H869   1.075       .  S
C865        C866   1.420       .  A
C866        C867   1.521       .  S
C867        F871   1.384       .  S
C867        F872   1.375       .  S
C867        F873   1.382       .  S
C870        F874   1.383       .  S
C870        F875   1.383       .  S
C870        F876   1.385       .  S
C877        C878   1.404       .  A
C877        C882   1.405       .  A
C877        H884   1.083       .  S
C878        C879   1.421       .  A
C879        C880   1.408       .  A
C879        C886   1.519       .  S
C880        C881   1.400       .  A
C880        H885   1.084       .  S
C881        C882   1.415       .  A
C882        C883   1.518       .  S
C883        F887   1.385       .  S
C883        F888   1.382       .  S
C883        F889   1.381       .  S
C886        F890   1.381       .  S
C886        F891   1.383       .  S
C886        F892   1.385       .  S
C893        C894   1.405       .  A
C893        C898   1.400       .  A
C893        H900   1.083       .  S
C894        C895   1.427       .  A
C895        C896   1.413       .  A
C895        C902   1.519       .  S
C896        C897   1.400       .  A
C896        H901   1.084       .  S
C897        C898   1.407       .  A
C898        C899   1.506       .  S
C899        F903   1.385       .  S
C899        F904   1.382       .  S
C899        F905   1.382       .  S
C902        F906   1.381       .  S
C902        F907   1.383       .  S
C902        F908   1.385       .  S
C909        C910   1.409       .  A
C909        C914   1.402       .  A
C909        H916   1.082       .  S
C910        C911   1.428       .  A
C911        C912   1.408       .  A
C911        C918   1.520       .  S
C912        C913   1.398       .  A
C912        H917   1.084       .  S
C913        C914   1.407       .  A
C914        C915   1.510       .  S
C915        F919   1.385       .  S
C915        F920   1.378       .  S
C915        F921   1.378       .  S
C918        F922   1.382       .  S
C918        F923   1.383       .  S
C918        F924   1.385       .  S
C925        C926   1.410   1_556  A
C926        C927   1.408   1_554  A
C926        H931   1.084       .  S
C927       C1443   1.483       .  S
C928        C929   1.404       .  A
C928        H932   1.084       .  S
C929        C930   1.405       .  A
C929        C954   1.479       .  S
C930        H933   1.084       .  S
C934        C935   1.404       .  A
C934        C939   1.406       .  A
C934       C1041   1.483       .  S
C935        C936   1.404       .  A
C935        H940   1.084       .  S
C936        C937   1.405       .  A
C936        C965   1.482       .  S
C937        C938   1.405       .  A
C937        H941   1.084       .  S
C938        C939   1.409       .  A
C938       C1048   1.481       .  S
C939        H942   1.084       .  S
C943        C944   1.399       .  A
C943        C948   1.408       .  A
C943        C990   1.481       .  S
C944        C945   1.402       .  A
C944        H949   1.084       .  S
C945        C946   1.407       .  A
C945        C972   1.481       .  S
C946        C947   1.407       .  A
C946        H950   1.084       .  S
C947        C948   1.411       .  A
C947       C1001   1.487       .  S
C948        H951   1.084       .  S
C952        C953   1.404       .  A
C952        C957   1.406       .  A
C952       C1356   1.495       .  S
C953        C954   1.406       .  A
C953        H958   1.079       .  S
C954        C955   1.404   1_556  A
C955        C956   1.403       .  A
C955        H959   1.079       .  S
C956        C957   1.405   1_554  A
C956       C1372   1.496       .  S
C957        H960   1.083       .  S
C961        C962   1.401       .  A
C961        C966   1.406       .  A
C961       C1340   1.485       .  S
C962        C963   1.402       .  A
C962        H967   1.083       .  S
C963        C964   1.407       .  A
C963       C1324   1.492       .  S
C964        C965   1.405       .  A
C964        H968   1.084       .  S
C965        C966   1.406       .  A
C966        H969   1.082       .  S
C970        C971   1.403       .  A
C970        C975   1.399       .  A
C970       C1308   1.478       .  S
C971        C972   1.404       .  A
C971        H976   1.083       .  S
C972        C973   1.407       .  A
C973        C974   1.408       .  A
C973        H977   1.083       .  S
C974        C975   1.402       .  A
C974       C1292   1.493       .  S
C975        H978   1.082       .  S
C979        C980   1.406       .  A
C979        C984   1.397   1_554  A
C979       C1260   1.480       .  S
C980        C981   1.410   1_554  A
C980        H985   1.083       .  S
C981       C1444   1.408       .  A
C981       C1389   1.483       .  S
C982       C1443   1.408       .  A
C982        C983   1.405       .  A
C982        H986   1.083       .  S
C983       C1446   1.394   1_545  A
C983       C1279   1.475       .  S
C984       C1445   1.394       .  A
C984        H987   1.085       .  S
C988        C989   1.410       .  A
C988       C1244   1.483       .  S
C989        C990   1.403       .  A
C989        H994   1.084       .  S
C990        C991   1.405       .  A
C991        H995   1.084       .  S
C992        C993   1.399       .  A
C992       C1228   1.476       .  S
C993        H996   1.084       .  S
C997        C998   1.396       .  A
C997       C1464   1.406       .  A
C997       C1196   1.480       .  S
C998       C1461   1.396       .  A
C998       H1003   1.084       .  S
C999       C1460   1.396       .  A
C999       C1000   1.409       .  A
C999       C1212   1.482       .  S
C1000      C1001   1.410       .  A
C1000      H1004   1.084       .  S
C1001      C1002   1.407       .  A
C1002      C1459   1.406       .  A
C1002      H1005   1.083       .  S
O1006      C1021   1.274       .  A
O1006     Al1014   1.974       .  S
C1007      C1311   1.468       .  S
C1007      O1017   1.272       .  A
C1007      O1008   1.251       .  A
O1008     Al1010   1.849       .  S
O1009      C1011   1.267       .  A
O1009     Al1010   1.951       .  S
Al1010     O1018   1.961       .  S
Al1010     O1020   1.843       .  S
Al1010     O1019   1.769       .  S
C1011      C1231   1.487       .  S
C1011      O1024   1.254       .  A
O1012      C1022   1.274       .  A
O1012     Al1014   1.973       .  S
O1013      C1026   1.270       .  A
O1013     Al1023   1.958       .  S
Al1014     O1027   1.863       .  S
Al1014     O1024   1.860       .  S
Al1014     O1019   1.770       .  S
O1015      C1022   1.253       .  A
O1015     Al1023   1.841       .  S
O1016      C1025   1.254       .  A
O1016     Al1023   1.863       .  S
O1017     Al1023   1.964       .  S
O1018      C1025   1.270       .  A
O1019     Al1023   1.770       .  S
O1020      C1021   1.255       .  A
C1021      C1183   1.499       .  S
C1022      C1199   1.498       .  S
C1025      C1375   1.469       .  S
C1026      C1263   1.474       .  S
C1026      O1027   1.253       .  A
C1028      C1029   1.396   1_556  A
C1028      C1033   1.409       .  A
C1028      C1164   1.481       .  S
C1029      H1034   1.084   1_655  S
C1030      C1031   1.406       .  A
C1030      C1180   1.483       .  S
C1031      H1035   1.080       .  S
C1032      C1033   1.407   1_554  A
C1033      H1036   1.084       .  S
C1037      C1500   1.397       .  A
C1037      C1042   1.406       .  A
C1037      C1135   1.474       .  S
C1038      C1499   1.397       .  A
C1038      C1039   1.402       .  A
C1038      H1043   1.084   1_565  S
C1039      C1502   1.408       .  A
C1039      C1148   1.489   1_565  S
C1040      C1501   1.408       .  A
C1040      C1041   1.406       .  A
C1040      H1044   1.080       .  S
C1041      C1042   1.404       .  A
C1042      H1045   1.084       .  S
C1046      C1047   1.410       .  A
C1046      C1119   1.485       .  S
C1047      C1048   1.407       .  A
C1047      H1052   1.082       .  S
C1048      C1049   1.401       .  A
C1049      H1053   1.082       .  S
C1050      C1051   1.399       .  A
C1050      C1100   1.483   1_455  S
C1051      H1054   1.084   1_455  S
O1055      C1070   1.273       .  A
O1055     Al1063   1.969       .  S
C1056      C1343   1.470       .  S
C1056      O1066   1.271       .  A
C1056      O1057   1.254       .  A
O1057     Al1059   1.866       .  S
O1058      C1060   1.272       .  A
O1058     Al1059   1.973       .  S
Al1059     O1067   1.972       .  S
Al1059     O1069   1.865       .  S
Al1059     O1068   1.771       .  S
C1060      C1151   1.498       .  S
C1060      O1073   1.252       .  A
O1061      C1071   1.272       .  A
O1061     Al1063   1.976       .  S
O1062      C1075   1.271       .  A
O1062     Al1072   1.960       .  S
Al1063     O1076   1.860       .  S
Al1063     O1073   1.847       .  S
Al1063     O1068   1.770       .  S
O1064      C1071   1.253       .  A
O1064     Al1072   1.845       .  S
O1065      C1074   1.254       .  A
O1065     Al1072   1.859       .  S
O1066     Al1072   1.958       .  S
O1067      C1074   1.273       .  A
O1068     Al1072   1.768       .  S
O1069      C1070   1.257       .  A
C1070      C1276   1.486       .  S
C1071      C1103   1.502       .  S
C1074      C1359   1.474       .  S
C1075      C1167   1.472       .  S
C1075      O1076   1.252       .  A
O1077      C1092   1.274       .  A
O1077     Al1085   1.978   1_655  S
C1078      O1088   1.274       .  A
O1079     Al1081   1.852   1_545  S
O1080      C1082   1.275       .  A
O1080     Al1543   1.973       .  S
Al1081     O1542   1.975       .  S
Al1081     O1089   1.983   1_565  S
Al1081     O1553   1.857       .  S
C1082      C1295   1.475       .  S
C1082      O1095   1.250       .  A
O1083      C1555   1.275       .  A
O1084      C1097   1.274   1_545  A
O1084     Al1094   1.980       .  S
Al1085     O1095   1.853   1_455  S
O1086      C1093   1.255       .  A
O1086     Al1094   1.856       .  S
O1087     Al1094   1.838       .  S
O1088     Al1094   1.984       .  S
O1089      C1096   1.276   1_655  A
O1090     Al1094   1.772   1_565  S
O1091      C1092   1.250       .  A
O1091     Al1543   1.856       .  S
C1092      C1327   1.478       .  S
C1093      C1215   1.475       .  S
C1093      O1545   1.275   1_545  A
C1097      C1594   1.490       .  S
C1097      O1560   1.251       .  A
O1098      C1559   1.251       .  A
C1099      C1100   1.406       .  A
C1099      C1104   1.411       .  A
C1099      H1106   1.083       .  S
C1100      C1101   1.411       .  A
C1101      C1102   1.398       .  A
C1101      C1108   1.524       .  S
C1102      C1103   1.415       .  A
C1102      H1107   1.082       .  S
C1103      C1104   1.422       .  A
C1104      C1105   1.514       .  S
C1105      F1109   1.385       .  S
C1105      F1110   1.382       .  S
C1105      F1111   1.374       .  S
C1108      F1112   1.384       .  S
C1108      F1113   1.381   1_655  S
C1108      F1114   1.385       .  S
C1115      C1116   1.414       .  A
C1115      C1120   1.401       .  A
C1115      H1122   1.082       .  S
C1117      C1118   1.414       .  A
C1117      C1124   1.517       .  S
C1118      H1123   1.083       .  S
C1119      C1120   1.413       .  A
C1120      C1121   1.525       .  S
C1121      F1125   1.385       .  S
C1121      F1126   1.383       .  S
C1121      F1127   1.381       .  S
C1124      F1128   1.384       .  S
C1124      F1129   1.383       .  S
C1124      F1130   1.384       .  S
C1131      C1594   1.404   1_545  A
C1131      C1136   1.411       .  A
C1131      H1138   1.080       .  S
C1132      C1593   1.404       .  A
C1132      C1133   1.425       .  A
C1132      C1559   1.490       .  S
C1133      C1134   1.397       .  A
C1133      C1140   1.514       .  S
C1134      C1135   1.393       .  A
C1134      H1139   1.085       .  S
C1135      C1598   1.419       .  A
C1136      C1597   1.419   1_545  A
C1136      C1137   1.516       .  S
C1137      F1141   1.384       .  S
C1137      F1142   1.381       .  S
C1137      F1143   1.383       .  S
C1140      F1144   1.383       .  S
C1140      F1145   1.384       .  S
C1140      F1146   1.386       .  S
C1147      C1148   1.410       .  A
C1147      C1152   1.413       .  A
C1147      H1154   1.083       .  S
C1148      C1149   1.415       .  A
C1149      C1150   1.400       .  A
C1149      C1618   1.525   1_545  S
C1150      C1151   1.413       .  A
C1150      H1155   1.081       .  S
C1151      C1152   1.418       .  A
C1152      C1153   1.517       .  S
C1153      F1157   1.385       .  S
C1153      F1158   1.383       .  S
C1153      F1159   1.382       .  S
C1156      C1611   1.525       .  S
C1156      F1622   1.383       .  S
C1156      F1161   1.381       .  S
C1156      F1162   1.385       .  S
F1160      C1618   1.383       .  S
C1163      C1164   1.401       .  A
C1163      C1168   1.404       .  A
C1163      H1170   1.083       .  S
C1164      C1165   1.422       .  A
C1165      C1166   1.406       .  A
C1165      C1172   1.522       .  S
C1166      C1167   1.399       .  A
C1166      H1171   1.083       .  S
C1167      C1168   1.414       .  A
C1168      C1169   1.510       .  S
C1169      F1173   1.384       .  S
C1169      F1174   1.383       .  S
C1169      F1175   1.380       .  S
C1172      F1176   1.382   1_556  S
C1172      F1177   1.383   1_556  S
C1172      F1178   1.385       .  S
C1179      C1180   1.409       .  A
C1179      C1184   1.412       .  A
C1179      H1186   1.083       .  S
C1180      C1181   1.412       .  A
C1181      C1182   1.399       .  A
C1181      C1188   1.527       .  S
C1182      C1183   1.415       .  A
C1182      H1187   1.077       .  S
C1183      C1184   1.419       .  A
C1184      C1185   1.518       .  S
C1185      F1189   1.385       .  S
C1185      F1190   1.383       .  S
C1185      F1191   1.383       .  S
C1188      F1192   1.384       .  S
C1188      F1193   1.381       .  S
C1188      F1194   1.381       .  S
C1195      C1196   1.407       .  A
C1195      C1200   1.413       .  A
C1195      H1202   1.083       .  S
C1196      C1197   1.409       .  A
C1197      C1198   1.400       .  A
C1197      C1204   1.523       .  S
C1198      C1199   1.415       .  A
C1198      H1203   1.080       .  S
C1199      C1200   1.420       .  A
C1200      C1201   1.517       .  S
C1201      F1205   1.384       .  S
C1201      F1206   1.383       .  S
C1201      F1207   1.382       .  S
C1204      F1208   1.384       .  S
C1204      F1671   1.381       .  S
C1204      F1210   1.385       .  S
F1209      C1666   1.381   1_545  S
C1211      C1212   1.403       .  A
C1211      C1216   1.409       .  A
C1211      H1218   1.083       .  S
C1212      C1213   1.418       .  A
C1213      C1214   1.406       .  A
C1213      C1220   1.522       .  S
C1214      C1215   1.403       .  A
C1214      H1219   1.084       .  S
C1215      C1216   1.415       .  A
C1216      C1217   1.514       .  S
C1217      F1221   1.384       .  S
C1217      F1684   1.383   1_545  S
C1217      F1223   1.381       .  S
C1220      F1686   1.381       .  S
C1220      F1225   1.384       .  S
C1220      F1226   1.384       .  S
F1222      C1679   1.383       .  S
F1224      C1682   1.381       .  S
C1227      C1228   1.403       .  A
C1227      C1232   1.411       .  A
C1227      H1234   1.083       .  S
C1228      C1229   1.410       .  A
C1229      C1230   1.402       .  A
C1229      C1236   1.520       .  S
C1230      C1231   1.409       .  A
C1230      H1235   1.083       .  S
C1231      C1232   1.420       .  A
C1232      C1233   1.518       .  S
C1233      F1237   1.384       .  S
C1233      F1238   1.383       .  S
C1233      F1239   1.383       .  S
C1236      F1240   1.382       .  S
C1236      F1241   1.383       .  S
C1236      F1242   1.384       .  S
C1243      C1244   1.391       .  A
C1243      C1248   1.398       .  A
C1243      H1250   1.083       .  S
C1245      C1246   1.412       .  A
C1245      C1252   1.516       .  S
C1246      H1251   1.084       .  S
C1247      C1248   1.436       .  A
C1248      C1249   1.518       .  S
C1249      F1253   1.386       .  S
C1249      F1254   1.383       .  S
C1249      F1255   1.374       .  S
C1252      F1256   1.381       .  S
C1252      F1257   1.382       .  S
C1252      F1258   1.384       .  S
C1259      C1260   1.400       .  A
C1259      C1264   1.401       .  A
C1259      H1266   1.084       .  S
C1260      C1261   1.418       .  A
C1261      C1262   1.410       .  A
C1261      C1268   1.517       .  S
C1262      C1263   1.402       .  A
C1262      H1267   1.082       .  S
C1263      C1264   1.415       .  A
C1264      C1265   1.514       .  S
C1265      F1269   1.385       .  S
C1265      F1270   1.382       .  S
C1265      F1271   1.382       .  S
C1268      F1272   1.382       .  S
C1268      F1735   1.382       .  S
C1268      F1736   1.385       .  S
F1273      C1730   1.382       .  S
F1274      C1730   1.385       .  S
C1275      C1276   1.405       .  A
C1275      C1280   1.401       .  A
C1275      H1282   1.074       .  S
C1276      C1277   1.417       .  A
C1277      C1278   1.413       .  A
C1277      C1284   1.516       .  S
C1278      C1279   1.405       .  A
C1278      H1745   1.083   1_545  S
C1279      C1280   1.409       .  A
C1280      C1281   1.521       .  S
C1281      F1285   1.380       .  S
C1281      F1286   1.382   1_556  S
C1281      F1287   1.383       .  S
H1283      C1740   1.083       .  S
C1284      F1288   1.383       .  S
C1284      F1289   1.382       .  S
C1284      F1752   1.384   1_545  S
F1290      C1746   1.384       .  S
C1291      C1292   1.408       .  A
C1291      C1296   1.407       .  A
C1291      H1298   1.082       .  S
C1292      C1293   1.424       .  A
C1293      C1294   1.403       .  A
C1293      C1300   1.523       .  S
C1294      C1295   1.397       .  A
C1294      H1299   1.076       .  S
C1295      C1296   1.418       .  A
C1296      C1297   1.522       .  S
C1297      F1301   1.384       .  S
C1297      F1302   1.376       .  S
C1297      F1303   1.382       .  S
C1300      F1304   1.383       .  S
C1300      F1305   1.382       .  S
C1300      F1306   1.385       .  S
C1307      C1308   1.400       .  A
C1307      C1312   1.402       .  A
C1307      H1314   1.083       .  S
C1308      C1309   1.420       .  A
C1309      C1310   1.407       .  A
C1309      C1316   1.519       .  S
C1310      C1311   1.399       .  A
C1310      H1315   1.084       .  S
C1311      C1312   1.418       .  A
C1312      C1313   1.519       .  S
C1313      F1317   1.385       .  S
C1313      F1318   1.381       .  S
C1313      F1319   1.380       .  S
C1316      F1320   1.382       .  S
C1316      F1321   1.382       .  S
C1316      F1322   1.385       .  S
C1323      C1324   1.406       .  A
C1323      C1328   1.406       .  A
C1323      H1330   1.082       .  S
C1324      C1325   1.421       .  A
C1325      C1326   1.405       .  A
C1325      C1332   1.522       .  S
C1326      C1327   1.399       .  A
C1326      H1331   1.075       .  S
C1327      C1328   1.420       .  A
C1328      C1329   1.522       .  S
C1329      F1333   1.384       .  S
C1329      F1334   1.375       .  S
C1329      F1335   1.382       .  S
C1332      F1336   1.383       .  S
C1332      F1337   1.383       .  S
C1332      F1338   1.385       .  S
C1339      C1340   1.404       .  A
C1339      C1344   1.405       .  A
C1339      H1346   1.083       .  S
C1340      C1341   1.421       .  A
C1341      C1342   1.408       .  A
C1341      C1348   1.519       .  S
C1342      C1343   1.400       .  A
C1342      H1347   1.084       .  S
C1343      C1344   1.415       .  A
C1344      C1345   1.518       .  S
C1345      F1349   1.385       .  S
C1345      F1350   1.382       .  S
C1345      F1351   1.381       .  S
C1348      F1352   1.381       .  S
C1348      F1353   1.383       .  S
C1348      F1354   1.385       .  S
C1355      C1356   1.405       .  A
C1355      C1360   1.400       .  A
C1355      H1362   1.083       .  S
C1356      C1357   1.427       .  A
C1357      C1358   1.413       .  A
C1357      C1364   1.519       .  S
C1358      C1359   1.400       .  A
C1358      H1363   1.084       .  S
C1359      C1360   1.407       .  A
C1360      C1361   1.506       .  S
C1361      F1365   1.385       .  S
C1361      F1366   1.382       .  S
C1361      F1367   1.382       .  S
C1364      F1368   1.381       .  S
C1364      F1369   1.383       .  S
C1364      F1370   1.385       .  S
C1371      C1372   1.409       .  A
C1371      C1376   1.402       .  A
C1371      H1378   1.082       .  S
C1372      C1373   1.428       .  A
C1373      C1374   1.408       .  A
C1373      C1380   1.520       .  S
C1374      C1375   1.398       .  A
C1374      H1379   1.084       .  S
C1375      C1376   1.407       .  A
C1376      C1377   1.510       .  S
C1377      F1381   1.385       .  S
C1377      F1382   1.378       .  S
C1377      F1383   1.378       .  S
C1380      F1384   1.382       .  S
C1380      F1385   1.383       .  S
C1380      F1386   1.385       .  S
C1387      C1388   1.410       .  A
C1388      C1389   1.407   1_554  A
C1388      H1393   1.084       .  S
C1390      C1391   1.404       .  A
C1390      H1394   1.084       .  S
C1391      C1392   1.405       .  A
C1391      C1416   1.479       .  S
C1392      H1395   1.084       .  S
C1396      C1397   1.404       .  A
C1396      C1401   1.406       .  A
C1396      C1503   1.484       .  S
C1397      C1398   1.404       .  A
C1397      H1402   1.084       .  S
C1398      C1399   1.405       .  A
C1398      C1427   1.482       .  S
C1399      C1400   1.405       .  A
C1399      H1403   1.084       .  S
C1400      C1401   1.409       .  A
C1400      C1510   1.482       .  S
C1401      H1404   1.084       .  S
C1405      C1406   1.400       .  A
C1405      C1410   1.408       .  A
C1405      C1452   1.481       .  S
C1406      C1407   1.402       .  A
C1406      H1411   1.084       .  S
C1407      C1408   1.407       .  A
C1407      C1434   1.480       .  S
C1408      C1409   1.406       .  A
C1408      H1412   1.084       .  S
C1409      C1410   1.410       .  A
C1409      C1463   1.486       .  S
C1410      H1413   1.084       .  S
C1414      C1415   1.404       .  A
C1414      C1419   1.406       .  A
C1414      C1818   1.495       .  S
C1415      C1416   1.406       .  A
C1415      H1420   1.080       .  S
C1416      C1417   1.404   1_556  A
C1417      C1418   1.403       .  A
C1417      H1421   1.079       .  S
C1418      C1419   1.405   1_554  A
C1418      C1834   1.496       .  S
C1419      H1422   1.083       .  S
C1423      C1424   1.401       .  A
C1423      C1428   1.406       .  A
C1423      C1802   1.485       .  S
C1424      C1425   1.402       .  A
C1424      H1429   1.083       .  S
C1425      C1426   1.407       .  A
C1425      C1786   1.492       .  S
C1426      C1427   1.405       .  A
C1426      H1430   1.084       .  S
C1427      C1428   1.406       .  A
C1428      H1431   1.082       .  S
C1432      C1433   1.402       .  A
C1432      C1437   1.399       .  A
C1432      C1770   1.478       .  S
C1433      C1434   1.404       .  A
C1433      H1438   1.083       .  S
C1434      C1435   1.407       .  A
C1435      C1436   1.407       .  A
C1435      H1439   1.083       .  S
C1436      C1437   1.402       .  A
C1436      C1754   1.493       .  S
C1437      H1440   1.082       .  S
C1441      C1442   1.406       .  A
C1441      C1446   1.396   1_554  A
C1441      C1722   1.479       .  S
C1442      C1443   1.410   1_564  A
C1442      H1447   1.083       .  S
C1444      C1445   1.405       .  A
C1444      H1448   1.084       .  S
C1445      C1741   1.475       .  S
C1446      H1449   1.085       .  S
C1450      C1451   1.410       .  A
C1450      C1706   1.484       .  S
C1451      C1452   1.403       .  A
C1451      H1456   1.084       .  S
C1452      C1453   1.404       .  A
C1453      H1457   1.084       .  S
C1454      C1455   1.399       .  A
C1454      C1690   1.475       .  S
C1455      H1458   1.084       .  S
C1459      C1460   1.396       .  A
C1459      C1658   1.480   1_545  S
C1460      H1465   1.084   1_545  S
C1461      C1462   1.409       .  A
C1461      C1674   1.481       .  S
C1462      C1463   1.410       .  A
C1462      H1466   1.084       .  S
C1463      C1464   1.407       .  A
C1464      H1467   1.083       .  S
O1468      C1483   1.274       .  A
O1468     Al1476   1.974       .  S
C1469      C1773   1.468       .  S
C1469      O1479   1.272       .  A
C1469      O1470   1.251       .  A
O1470     Al1472   1.849       .  S
O1471      C1473   1.267       .  A
O1471     Al1472   1.951       .  S
Al1472     O1480   1.960       .  S
Al1472     O1482   1.843       .  S
Al1472     O1481   1.769       .  S
C1473      C1693   1.487       .  S
C1473      O1486   1.254       .  A
O1474      C1484   1.274       .  A
O1474     Al1476   1.973       .  S
O1475      C1488   1.270       .  A
O1475     Al1485   1.958       .  S
Al1476     O1489   1.863       .  S
Al1476     O1486   1.860       .  S
Al1476     O1481   1.770       .  S
O1477      C1484   1.253       .  A
O1477     Al1485   1.841       .  S
O1478      C1487   1.254       .  A
O1478     Al1485   1.863       .  S
O1479     Al1485   1.964       .  S
O1480      C1487   1.270       .  A
O1481     Al1485   1.770       .  S
O1482      C1483   1.255       .  A
C1483      C1645   1.499       .  S
C1484      C1661   1.498       .  S
C1487      C1837   1.469       .  S
C1488      C1725   1.474       .  S
C1488      O1489   1.253       .  A
C1490      C1491   1.396   1_556  A
C1490      C1495   1.408       .  A
C1490      C1626   1.481       .  S
C1491      H1496   1.084   1_655  S
C1492      C1493   1.406       .  A
C1492      C1642   1.483       .  S
C1493      H1497   1.080       .  S
C1494      C1495   1.407   1_554  A
C1495      H1498   1.084       .  S
C1499      C1504   1.406       .  A
C1499      C1597   1.474       .  S
C1500      C1501   1.402       .  A
C1500      H1505   1.084       .  S
C1501      C1610   1.489       .  S
C1502      C1503   1.406       .  A
C1502      H1506   1.080       .  S
C1503      C1504   1.404       .  A
C1504      H1507   1.084       .  S
C1508      C1509   1.410       .  A
C1508      C1581   1.485       .  S
C1509      C1510   1.407       .  A
C1509      H1514   1.082       .  S
C1510      C1511   1.401       .  A
C1511      H1515   1.082       .  S
C1512      C1513   1.399       .  A
C1512      C1562   1.483   1_455  S
C1513      H1516   1.084   1_455  S
O1517      C1532   1.273       .  A
O1517     Al1525   1.969       .  S
C1518      C1805   1.471       .  S
C1518      O1528   1.271       .  A
C1518      O1519   1.254       .  A
O1519     Al1521   1.866       .  S
O1520      C1522   1.272       .  A
O1520     Al1521   1.973       .  S
Al1521     O1529   1.972       .  S
Al1521     O1531   1.865       .  S
Al1521     O1530   1.771       .  S
C1522      C1613   1.498       .  S
C1522      O1535   1.252       .  A
O1523      C1533   1.272       .  A
O1523     Al1525   1.977       .  S
O1524      C1537   1.271       .  A
O1524     Al1534   1.960       .  S
Al1525     O1538   1.859       .  S
Al1525     O1535   1.847       .  S
Al1525     O1530   1.770       .  S
O1526      C1533   1.253       .  A
O1526     Al1534   1.845       .  S
O1527      C1536   1.254       .  A
O1527     Al1534   1.859       .  S
O1528     Al1534   1.959       .  S
O1529      C1536   1.273       .  A
O1530     Al1534   1.768       .  S
O1531      C1532   1.257       .  A
C1532      C1738   1.486       .  S
C1533      C1565   1.502       .  S
C1536      C1821   1.474       .  S
C1537      C1629   1.471       .  S
C1537      O1538   1.252       .  A
O1539      C1554   1.274       .  A
O1539     Al1547   1.977   1_655  S
C1540      O1550   1.274       .  A
O1541     Al1543   1.850       .  S
O1542      C1544   1.275       .  A
Al1543     O1551   1.984       .  S
C1544      C1757   1.476       .  S
C1544      O1557   1.251       .  A
O1546      C1559   1.274       .  A
O1546     Al1556   1.980       .  S
Al1547     O1557   1.853   1_455  S
O1548      C1555   1.255       .  A
O1548     Al1556   1.857       .  S
O1549     Al1556   1.838       .  S
O1550     Al1556   1.985       .  S
O1551      C1558   1.276   1_655  A
O1552     Al1556   1.772       .  S
O1553      C1554   1.250       .  A
C1554      C1789   1.479       .  S
C1555      C1677   1.475       .  S
C1561      C1562   1.406       .  A
C1561      C1566   1.411       .  A
C1561      H1568   1.083       .  S
C1562      C1563   1.411       .  A
C1563      C1564   1.398       .  A
C1563      C1570   1.524       .  S
C1564      C1565   1.415       .  A
C1564      H1569   1.082       .  S
C1565      C1566   1.422       .  A
C1566      C1567   1.514       .  S
C1567      F1571   1.385       .  S
C1567      F1572   1.382       .  S
C1567      F1573   1.374       .  S
C1570      F1574   1.384       .  S
C1570      F1575   1.381   1_655  S
C1570      F1576   1.385       .  S
C1577      C1578   1.414       .  A
C1577      C1582   1.401       .  A
C1577      H1584   1.082       .  S
C1579      C1580   1.414       .  A
C1579      C1586   1.517       .  S
C1580      H1585   1.083       .  S
C1581      C1582   1.413       .  A
C1582      C1583   1.525       .  S
C1583      F1587   1.385       .  S
C1583      F1588   1.383       .  S
C1583      F1589   1.381       .  S
C1586      F1590   1.384       .  S
C1586      F1591   1.383       .  S
C1586      F1592   1.384       .  S
C1593      C1598   1.411       .  A
C1593      H1600   1.080       .  S
C1594      C1595   1.425       .  A
C1595      C1596   1.397       .  A
C1595      C1602   1.515       .  S
C1596      C1597   1.393       .  A
C1596      H1601   1.085       .  S
C1598      C1599   1.516       .  S
C1599      F1603   1.384       .  S
C1599      F1604   1.381       .  S
C1599      F1605   1.383       .  S
C1602      F1606   1.383       .  S
C1602      F1607   1.384       .  S
C1602      F1608   1.386       .  S
C1609      C1610   1.410       .  A
C1609      C1614   1.413       .  A
C1609      H1616   1.083       .  S
C1610      C1611   1.415       .  A
C1611      C1612   1.400       .  A
C1612      C1613   1.413       .  A
C1612      H1617   1.081       .  S
C1613      C1614   1.418       .  A
C1614      C1615   1.517       .  S
C1615      F1619   1.384       .  S
C1615      F1620   1.383       .  S
C1615      F1621   1.382       .  S
C1618      F1623   1.381       .  S
C1618      F1624   1.385   1_565  S
C1625      C1626   1.401       .  A
C1625      C1630   1.404       .  A
C1625      H1632   1.083       .  S
C1626      C1627   1.422       .  A
C1627      C1628   1.406       .  A
C1627      C1634   1.522       .  S
C1628      C1629   1.399       .  A
C1628      H1633   1.083       .  S
C1629      C1630   1.414       .  A
C1630      C1631   1.510       .  S
C1631      F1635   1.384       .  S
C1631      F1636   1.383       .  S
C1631      F1637   1.380       .  S
C1634      F1638   1.382   1_556  S
C1634      F1639   1.383   1_556  S
C1634      F1640   1.385       .  S
C1641      C1642   1.409       .  A
C1641      C1646   1.412       .  A
C1641      H1648   1.083       .  S
C1642      C1643   1.412       .  A
C1643      C1644   1.399       .  A
C1643      C1650   1.527       .  S
C1644      C1645   1.415       .  A
C1644      H1649   1.077       .  S
C1645      C1646   1.419       .  A
C1646      C1647   1.518       .  S
C1647      F1651   1.385       .  S
C1647      F1652   1.383       .  S
C1647      F1653   1.383       .  S
C1650      F1654   1.384       .  S
C1650      F1655   1.381       .  S
C1650      F1656   1.381       .  S
C1657      C1658   1.407       .  A
C1657      C1662   1.413       .  A
C1657      H1664   1.083       .  S
C1658      C1659   1.409       .  A
C1659      C1660   1.400       .  A
C1659      C1666   1.523       .  S
C1660      C1661   1.415       .  A
C1660      H1665   1.080       .  S
C1661      C1662   1.420       .  A
C1662      C1663   1.517       .  S
C1663      F1667   1.384       .  S
C1663      F1668   1.383       .  S
C1663      F1669   1.382       .  S
C1666      F1670   1.384       .  S
C1666      F1672   1.385       .  S
C1673      C1674   1.403       .  A
C1673      C1678   1.409       .  A
C1673      H1680   1.083       .  S
C1674      C1675   1.418       .  A
C1675      C1676   1.406       .  A
C1675      C1682   1.522       .  S
C1676      C1677   1.403       .  A
C1676      H1681   1.084       .  S
C1677      C1678   1.415       .  A
C1678      C1679   1.514       .  S
C1679      F1683   1.384       .  S
C1679      F1685   1.381       .  S
C1682      F1687   1.384       .  S
C1682      F1688   1.384       .  S
C1689      C1690   1.403       .  A
C1689      C1694   1.411       .  A
C1689      H1696   1.083       .  S
C1690      C1691   1.410       .  A
C1691      C1692   1.402       .  A
C1691      C1698   1.520       .  S
C1692      C1693   1.409       .  A
C1692      H1697   1.083       .  S
C1693      C1694   1.420       .  A
C1694      C1695   1.518       .  S
C1695      F1699   1.384       .  S
C1695      F1700   1.383       .  S
C1695      F1701   1.383       .  S
C1698      F1702   1.382       .  S
C1698      F1703   1.383       .  S
C1698      F1704   1.384       .  S
C1705      C1706   1.392       .  A
C1705      C1710   1.399       .  A
C1705      H1712   1.083       .  S
C1707      C1708   1.411       .  A
C1707      C1714   1.516       .  S
C1708      H1713   1.084       .  S
C1709      C1710   1.437       .  A
C1710      C1711   1.521       .  S
C1711      F1715   1.385       .  S
C1711      F1716   1.383       .  S
C1711      F1717   1.374       .  S
C1714      F1718   1.381       .  S
C1714      F1719   1.382       .  S
C1714      F1720   1.384       .  S
C1721      C1722   1.400       .  A
C1721      C1726   1.401       .  A
C1721      H1728   1.084       .  S
C1722      C1723   1.418       .  A
C1723      C1724   1.410       .  A
C1723      C1730   1.517   1_565  S
C1724      C1725   1.402       .  A
C1724      H1729   1.082       .  S
C1725      C1726   1.415       .  A
C1726      C1727   1.514       .  S
C1727      F1731   1.385       .  S
C1727      F1732   1.382       .  S
C1727      F1733   1.382       .  S
C1730      F1734   1.382       .  S
C1737      C1738   1.405       .  A
C1737      C1742   1.401       .  A
C1737      H1744   1.074       .  S
C1738      C1739   1.417       .  A
C1739      C1740   1.413       .  A
C1739      C1746   1.516       .  S
C1740      C1741   1.405       .  A
C1741      C1742   1.409       .  A
C1742      C1743   1.521       .  S
C1743      F1747   1.380       .  S
C1743      F1748   1.382   1_556  S
C1743      F1749   1.383       .  S
C1746      F1750   1.383       .  S
C1746      F1751   1.382       .  S
C1753      C1754   1.408       .  A
C1753      C1758   1.408       .  A
C1753      H1760   1.082       .  S
C1754      C1755   1.423       .  A
C1755      C1756   1.402       .  A
C1755      C1762   1.523       .  S
C1756      C1757   1.396       .  A
C1756      H1761   1.073       .  S
C1757      C1758   1.418       .  A
C1758      C1759   1.521       .  S
C1759      F1763   1.384       .  S
C1759      F1764   1.376       .  S
C1759      F1765   1.382       .  S
C1762      F1766   1.383       .  S
C1762      F1767   1.382       .  S
C1762      F1768   1.385       .  S
C1769      C1770   1.400       .  A
C1769      C1774   1.402       .  A
C1769      H1776   1.083       .  S
C1770      C1771   1.420       .  A
C1771      C1772   1.407       .  A
C1771      C1778   1.519       .  S
C1772      C1773   1.399       .  A
C1772      H1777   1.084       .  S
C1773      C1774   1.418       .  A
C1774      C1775   1.519       .  S
C1775      F1779   1.385       .  S
C1775      F1780   1.381       .  S
C1775      F1781   1.380       .  S
C1778      F1782   1.381       .  S
C1778      F1783   1.382       .  S
C1778      F1784   1.385       .  S
C1785      C1786   1.406       .  A
C1785      C1790   1.406       .  A
C1785      H1792   1.082       .  S
C1786      C1787   1.421       .  A
C1787      C1788   1.405       .  A
C1787      C1794   1.522       .  S
C1788      C1789   1.399       .  A
C1788      H1793   1.075       .  S
C1789      C1790   1.420       .  A
C1790      C1791   1.521       .  S
C1791      F1795   1.384       .  S
C1791      F1796   1.375       .  S
C1791      F1797   1.382       .  S
C1794      F1798   1.383       .  S
C1794      F1799   1.383       .  S
C1794      F1800   1.385       .  S
C1801      C1802   1.404       .  A
C1801      C1806   1.405       .  A
C1801      H1808   1.083       .  S
C1802      C1803   1.421       .  A
C1803      C1804   1.408       .  A
C1803      C1810   1.519       .  S
C1804      C1805   1.400       .  A
C1804      H1809   1.084       .  S
C1805      C1806   1.415       .  A
C1806      C1807   1.518       .  S
C1807      F1811   1.385       .  S
C1807      F1812   1.382       .  S
C1807      F1813   1.381       .  S
C1810      F1814   1.381       .  S
C1810      F1815   1.383       .  S
C1810      F1816   1.385       .  S
C1817      C1818   1.405       .  A
C1817      C1822   1.400       .  A
C1817      H1824   1.083       .  S
C1818      C1819   1.427       .  A
C1819      C1820   1.413       .  A
C1819      C1826   1.519       .  S
C1820      C1821   1.400       .  A
C1820      H1825   1.084       .  S
C1821      C1822   1.407       .  A
C1822      C1823   1.506       .  S
C1823      F1827   1.385       .  S
C1823      F1828   1.382       .  S
C1823      F1829   1.382       .  S
C1826      F1830   1.381       .  S
C1826      F1831   1.383       .  S
C1826      F1832   1.385       .  S
C1833      C1834   1.409       .  A
C1833      C1838   1.402       .  A
C1833      H1840   1.082       .  S
C1834      C1835   1.428       .  A
C1835      C1836   1.408       .  A
C1835      C1842   1.520       .  S
C1836      C1837   1.398       .  A
C1836      H1841   1.084       .  S
C1837      C1838   1.407       .  A
C1838      C1839   1.510       .  S
C1839      F1843   1.385       .  S
C1839      F1844   1.378       .  S
C1839      F1845   1.378       .  S
C1842      F1846   1.382       .  S
C1842      F1847   1.383       .  S
C1842      F1848   1.385       .  S
