geometry optimzed in LAMMPS
_audit_creation_date              2020-12-01 
_audit_creation_method            'lammps2cif' 
_symmetry_space_group_name_H-M    'P1' 
_symmetry_Int_Tables_number       1 
_symmetry_cell_setting            triclinic 
loop_ 
_symmetry_equiv_pos_as_xyz 
  x,y,z 
_cell_length_a                    47.98921643 
_cell_length_b                    47.625839633296714 
_cell_length_c                    55.3453740462745 
_cell_angle_alpha                 89.93466018498803 
_cell_angle_beta                  90.4083886780996 
_cell_angle_gamma                 119.7864639752092 
loop_ 
_atom_site_label 
_atom_site_type_symbol 
_atom_site_fract_x 
_atom_site_fract_y 
_atom_site_fract_z 
_atom_site_charge 
Zn1        Zn  0.81106413  0.11803081  0.15461266     1.49700
Zn2        Zn  0.87614516  0.18715809  0.15608767     1.49400
Zn3        Zn  0.80747224  0.18331889  0.15322459     1.49100
Zn4        Zn  0.82995881  0.16290058  0.20236810     1.49500
O5          O  0.83112107  0.16285830  0.16667153    -1.84000
O6          O  0.84333481  0.11078977  0.13663632    -0.74600
O7          O  0.88434218  0.22555177  0.13546452    -0.74400
O8          O  0.77015928  0.15244426  0.13170123    -0.73900
O9          O  0.88711589  0.15905781  0.13574741    -0.74600
O10         O  0.77304223  0.10726694  0.13172506    -0.74200
O11         O  0.83660462  0.22246570  0.13297111    -0.74800
O12         O  0.80715224  0.18676284  0.21411042    -0.74200
O13         O  0.90724182  0.20286521  0.18469239    -0.75000
O14         O  0.79034041  0.19900691  0.18012657    -0.74300
O15         O  0.87550165  0.18580001  0.21685430    -0.74800
O16         O  0.80628101  0.11652069  0.21521395    -0.74700
O17         O  0.79621921  0.08626187  0.18250969    -0.74500
C18         C  0.87229168  0.12916036  0.13024668     0.77300
C19         C  0.86627844  0.23614292  0.12763990     0.77800
C20         C  0.75976250  0.12341426  0.12464769     0.76700
C21         C  0.79260216  0.19934723  0.20308714     0.77100
C22         C  0.90344232  0.20037045  0.20752420     0.78200
C23         C  0.79529842  0.08872936  0.20537184     0.77300
C24         C  0.11977836  0.35601031  0.34615293     0.80400
N25         N  0.14877136  0.35754389  0.34460711    -0.77900
C26         C  0.15393437  0.34003313  0.32754365     0.82800
N27         N  0.12961734  0.32065165  0.31209968    -0.77900
C28         C  0.10046083  0.31892980  0.31365207     0.82900
N29         N  0.09578402  0.33667786  0.33067917    -0.79600
C30         C  0.65350135  0.88101609  0.35481394     0.80400
N31         N  0.65328352  0.85234267  0.35421737    -0.77900
C32         C  0.66783632  0.84542956  0.33595609     0.82800
N33         N  0.68321291  0.86780972  0.31826607    -0.77900
C34         C  0.68386101  0.89676953  0.31877899     0.82900
N35         N  0.66877885  0.90284290  0.33698674    -0.79600
C36         C  0.01080443  0.44578522  0.98419048     0.80400
N37         N  0.99370295  0.42319345  0.00111489    -0.77900
C38         C  0.97503093  0.42795063  0.01699605     0.82800
N39         N  0.97360766  0.45574364  0.01604116    -0.77900
C40         C  0.99085865  0.47880271  0.99927243     0.82900
N41         N  0.00942669  0.47367312  0.98328949    -0.79600
C42         C  0.55200466  0.98908601  0.97228332     0.80400
N43         N  0.52466199  0.99086429  0.97350072    -0.77900
C44         C  0.52069382  0.00835480  0.99125358     0.82800
N45         N  0.54442250  0.02394404  0.00811909    -0.77900
C46         C  0.57186717  0.02204012  0.00706479     0.82900
N47         N  0.57541481  0.00460154  0.98915029    -0.79600
Zn48       Zn  0.49573066  0.49910368  0.54077433     1.49700
Zn49       Zn  0.47156889  0.52333865  0.49388739     1.49400
Zn50       Zn  0.53780307  0.52221985  0.49303368     1.49100
Zn51       Zn  0.46955243  0.45592363  0.49243611     1.49500
O52         O  0.49362968  0.50024891  0.50517575    -1.84000
O53         O  0.47319588  0.52177675  0.55482883    -0.74600
O54         O  0.50027757  0.56090380  0.47182288    -0.74400
O55         O  0.57079452  0.54197519  0.52011817    -0.73900
O56         O  0.45872868  0.54006702  0.52266532    -0.74600
O57         O  0.54223949  0.52227147  0.55347917    -0.74200
O58         O  0.54502299  0.55798496  0.46946720    -0.74800
O59         O  0.49896455  0.44571020  0.47357574    -0.74200
O60         O  0.43083357  0.49407557  0.47457066    -0.75000
O61         O  0.54680045  0.48977767  0.47656117    -0.74300
O62         O  0.43288513  0.44901434  0.47022830    -0.74800
O63         O  0.45111451  0.42310352  0.51981265    -0.74700
O64         O  0.47238755  0.45255075  0.55310471    -0.74500
C65         C  0.46017035  0.53694957  0.54544171     0.77300
C66         C  0.52835156  0.57102937  0.46339444     0.77800
C67         C  0.56925539  0.53884220  0.54301907     0.76700
C68         C  0.52904002  0.46056255  0.46975509     0.77100
C69         C  0.41948693  0.46577140  0.46566558     0.78200
C70         C  0.45506713  0.42531803  0.54269022     0.77300
Zn71       Zn  0.61454447  0.80478637  0.83875235     1.49700
Zn72       Zn  0.68362646  0.80939072  0.83894750     1.49400
Zn73       Zn  0.65978484  0.82881088  0.79084956     1.49100
Zn74       Zn  0.67785695  0.87379093  0.83793394     1.49500
O75         O  0.65874680  0.82898681  0.82649937    -1.84000
O76         O  0.60806361  0.76669575  0.85968601    -0.74600
O77         O  0.70070571  0.79351352  0.81197922    -0.74400
O78         O  0.61448723  0.80459352  0.77748334    -0.73900
O79         O  0.65641432  0.77102611  0.86076251    -0.74600
O80         O  0.58406369  0.78713184  0.81047727    -0.74200
O81         O  0.68372240  0.80637657  0.77849702    -0.74800
O82         O  0.69527407  0.90570320  0.81022040    -0.74200
O83         O  0.72224187  0.84251854  0.85759239    -0.75000
O84         O  0.68208988  0.87473097  0.77733484    -0.74300
O85         O  0.71498139  0.88464455  0.86012823    -0.74800
O86         O  0.64658838  0.88177645  0.85663611    -0.74700
O87         O  0.60237424  0.83358965  0.85838283    -0.74500
C88         C  0.62694618  0.75671194  0.86688923     0.77300
C89         C  0.69878521  0.79400942  0.78904388     0.77800
C90         C  0.58718145  0.78915210  0.78760075     0.76700
C91         C  0.69516613  0.90254510  0.78736247     0.77100
C92         C  0.73119270  0.87096135  0.86525850     0.78200
C93         C  0.61788187  0.86366027  0.86363712     0.77300
C94         C  0.78881159  0.69138667  0.67824962     0.80400
N95         N  0.76577682  0.67257609  0.66198248    -0.77900
C96         C  0.77132519  0.65536685  0.64509907     0.82800
N97         N  0.80050600  0.65697258  0.64444223    -0.77900
C98         C  0.82394299  0.67572105  0.66078540     0.82900
N99         N  0.81787161  0.69285369  0.67765999    -0.79600
C100        C  0.76958165  0.11813591  0.64708655     0.80400
N101        N  0.76466654  0.09461253  0.66311991    -0.77900
C102        C  0.78670085  0.09974014  0.68057022     0.82800
N103        N  0.81401326  0.12913755  0.68210268    -0.77900
C104        C  0.81922060  0.15311606  0.66610792     0.82900
N105        N  0.79686205  0.14741524  0.64859059    -0.79600
C106        C  0.57817455  0.54559767  0.00876290     0.80400
N107        N  0.54880639  0.51856721  0.01052400    -0.77900
C108        C  0.52486454  0.51321708  0.99459284     0.82800
N109        N  0.53042119  0.53550392  0.97704478    -0.77900
C110        C  0.55972791  0.56273826  0.97529556     0.82900
N111        N  0.58341485  0.56756967  0.99119040    -0.79600
Zn112      Zn  0.00256281  0.49993888  0.46302543     1.49700
Zn113      Zn  0.02151757  0.47607209  0.51145682     1.49400
Zn114      Zn  0.02758630  0.54699332  0.50917581     1.49100
Zn115      Zn  0.95852789  0.48254533  0.51123853     1.49500
O116        O  0.00251112  0.50145465  0.49868258    -1.84000
O117        O  0.02457911  0.47564521  0.45092773    -0.74600
O118        O  0.05864602  0.50392008  0.53354987    -0.74400
O119        O  0.04307082  0.57787654  0.48030204    -0.73900
O120        O  0.03875499  0.45982085  0.48439980    -0.74600
O121        O  0.02591220  0.54514116  0.44845928    -0.74200
O122        O  0.06635910  0.55345923  0.52861729    -0.74800
O123        O  0.95229907  0.51546695  0.53029606    -0.74200
O124        O  0.98977399  0.43787793  0.53153196    -0.75000
O125        O  0.00070177  0.55950486  0.53054372    -0.74300
O126        O  0.94680411  0.44383124  0.53332591    -0.74800
O127        O  0.92729411  0.46703221  0.48331612    -0.81600
O128        O  0.95691560  0.47733211  0.45011059    -0.74500
C129        C  0.03792619  0.46148437  0.46141512     0.77300
C130        C  0.07474262  0.53416027  0.53779211     0.77800
C131        C  0.04051628  0.57357843  0.45744733     0.76700
C132        C  0.97124241  0.54461945  0.53675342     0.77100
C133        C  0.96162534  0.42883224  0.53931440     0.78200
C134        C  0.92983071  0.46609305  0.46047253     0.77300
Zn135      Zn  0.85815579  0.71959188  0.17638091     1.49700
Zn136      Zn  0.79391193  0.64979486  0.17555603     1.49400
Zn137      Zn  0.83815515  0.67461754  0.12890191     1.49100
Zn138      Zn  0.86369690  0.65505172  0.17649473     1.49500
O139        O  0.83855503  0.67477096  0.16445155    -1.84000
O140        O  0.82657897  0.72618052  0.19633102    -0.74600
O141        O  0.76204879  0.63286446  0.14748654    -0.74400
O142        O  0.86101813  0.71980335  0.11555587    -0.73900
O143        O  0.78287025  0.67733953  0.19715076    -0.74600
O144        O  0.87271073  0.75086920  0.14832895    -0.74200
O145        O  0.79318312  0.65184045  0.11519283    -0.74800
O146        O  0.87922551  0.63892228  0.14838672    -0.74200
O147        O  0.78742736  0.61081806  0.19446500    -0.75000
O148        O  0.85990611  0.65116283  0.11581621    -0.74300
O149        O  0.83578194  0.61555493  0.19723200    -0.74800
O150        O  0.90241377  0.68740130  0.19651304    -0.74700
O151        O  0.89756296  0.73152054  0.19746545    -0.74500
C152        C  0.79801647  0.70708706  0.20332217     0.77300
C153        C  0.76554910  0.63587324  0.12465457     0.77800
C154        C  0.87296887  0.74749959  0.12550465     0.76700
C155        C  0.87514423  0.63855596  0.12557017     0.77100
C156        C  0.80584084  0.60047450  0.20196588     0.78200
C157        C  0.91227377  0.71641906  0.20344441     0.77300
C158        C  0.68194858  0.77819008  0.31775184     0.80400
N159        N  0.66486203  0.75574919  0.33480022    -0.77900
C160        C  0.64818323  0.76156971  0.35182724     0.82800
N161        N  0.64908249  0.79059816  0.35212479    -0.77900
C162        C  0.66656845  0.81366586  0.33537704     0.82900
N163        N  0.68269438  0.80717354  0.31808878    -0.79600
C164        C  0.11891465  0.77145335  0.35035742     0.80400
N165        N  0.14838956  0.79864068  0.34953666    -0.77900
C166        C  0.15475788  0.82185520  0.33253929     0.82800
N167        N  0.13153947  0.81720718  0.31603217    -0.77900
C168        C  0.10206900  0.78999487  0.31665601     0.82900
N169        N  0.09602530  0.76753014  0.33402053    -0.79600
Zn170      Zn  0.51863395  0.03437379  0.51865875     1.49700
Zn171      Zn  0.50131126  0.99348306  0.46893245     1.49400
Zn172      Zn  0.51692831  0.96624252  0.51622941     1.49100
Zn173      Zn  0.45145671  0.96996429  0.51327187     1.49500
O174        O  0.49693708  0.99097231  0.50429615    -1.84000
O175        O  0.53393204  0.06774161  0.49208892    -0.74600
O176        O  0.52644272  0.97254109  0.45669985    -0.74400
O177        O  0.55862867  0.99592461  0.53435560    -0.73900
O178        O  0.52403657  0.03966723  0.45785107    -0.74600
O179        O  0.55813936  0.04205798  0.53763621    -0.74200
O180        O  0.52954332  0.94660667  0.48881203    -0.74800
O181        O  0.44051369  0.93128320  0.53441724    -0.74200
O182        O  0.45766373  0.97159153  0.45263125    -0.75000
O183        O  0.48579224  0.92942484  0.53760275    -0.74300
O184        O  0.42301568  0.95492633  0.48312138    -0.74800
O185        O  0.44106755  0.99989621  0.53292183    -0.74700
O186        O  0.48901304  0.04255173  0.54012447    -0.74500
C187        C  0.53501539  0.06635041  0.46915335     0.77300
C188        C  0.53442792  0.95329095  0.46642095     0.77800
C189        C  0.57167775  0.02523299  0.54155502     0.76700
C190        C  0.45619654  0.91815983  0.54260772     0.77100
C191        C  0.42901960  0.95763666  0.46053948     0.78200
C192        C  0.45865059  0.02731534  0.54299384     0.77300
Zn193      Zn  0.16625189  0.33519044  0.80059094     1.49700
Zn194      Zn  0.12325372  0.31376522  0.84761189     1.49400
Zn195      Zn  0.18982998  0.31140301  0.84673952     1.49100
Zn196      Zn  0.19150228  0.37888080  0.85057336     1.49500
O197        O  0.16788241  0.33506228  0.83631647    -1.84000
O198        O  0.11994409  0.31235586  0.78743780    -0.74600
O199        O  0.11321211  0.27243979  0.86476456    -0.74400
O200        O  0.20409619  0.29542304  0.81825948    -0.73900
O201        O  0.09063388  0.30135858  0.82031528    -0.74600
O202        O  0.18892917  0.31242028  0.78599826    -0.74200
O203        O  0.15931079  0.27168646  0.86512149    -0.74800
O204        O  0.23170270  0.38625701  0.86966953    -0.74200
O205        O  0.11556099  0.34268252  0.86992392    -0.75000
O206        O  0.22971402  0.33870742  0.86715228    -0.74300
O207        O  0.16247475  0.38809149  0.87259019    -0.74800
O208        O  0.20623285  0.41100478  0.82317123    -0.74700
O209        O  0.18852980  0.38184483  0.78919096    -0.74500
C210        C  0.09255424  0.30114533  0.79740717     0.77300
C211        C  0.12963390  0.25890804  0.87013843     0.77800
C212        C  0.20223469  0.29751242  0.79544785     0.76700
C213        C  0.24343749  0.36794514  0.87443702     0.77100
C214        C  0.13281007  0.37128581  0.87810983     0.78200
C215        C  0.20331374  0.40897243  0.80021325     0.77300
C216        C  0.30436042  0.20772949  0.68392018     0.80400
N217        N  0.30689206  0.18046591  0.68344002    -0.77900
C218        C  0.32597836  0.17718022  0.66676026     0.82800
N219        N  0.34300828  0.20180915  0.65090513    -0.77900
C220        C  0.34060696  0.22919863  0.65138665     0.82900
N221        N  0.32100767  0.23159675  0.66776884    -0.79600
C222        C  0.88072597  0.23853999  0.65309966     0.80400
N223        N  0.85373563  0.20897434  0.65164422    -0.77900
C224        C  0.84874344  0.18525984  0.66777931     0.82800
N225        N  0.87118160  0.19135104  0.68531553    -0.77900
C226        C  0.89820667  0.22092231  0.68683610     0.82900
N227        N  0.90280835  0.24430968  0.67068343    -0.79600
Zn228      Zn  0.31900314  0.19406321  0.15570629     1.49700
Zn229      Zn  0.33773460  0.16947363  0.20375623     1.49400
Zn230      Zn  0.32068093  0.12783754  0.15444588     1.49100
Zn231      Zn  0.38658761  0.19439326  0.15824013     1.49500
O232        O  0.34122743  0.17165565  0.16816291    -1.84000
O233        O  0.30366967  0.21158443  0.18274050    -0.74600
O234        O  0.31396627  0.12265983  0.21486726    -0.74400
O235        O  0.28267968  0.11897206  0.13371218    -0.73900
O236        O  0.31492456  0.19315045  0.21622178    -0.74600
O237        O  0.27950910  0.16364707  0.13619242    -0.74200
O238        O  0.30486686  0.09405114  0.18097906    -0.74800
O239        O  0.39781059  0.16503738  0.13799017    -0.74200
O240        O  0.38194407  0.19069368  0.21952257    -0.75000
O241        O  0.35066076  0.12077902  0.13339206    -0.74300
O242        O  0.41509349  0.20882482  0.18810277    -0.74800
O243        O  0.39639516  0.23461998  0.13838337    -0.74700
O244        O  0.34887884  0.23210229  0.13496942    -0.74500
C245        C  0.30333178  0.20894047  0.20564122     0.77300
C246        C  0.30333659  0.09569334  0.20387026     0.77800
C247        C  0.26842936  0.13472740  0.12868441     0.76700
C248        C  0.38058029  0.13673038  0.12907704     0.77100
C249        C  0.41016201  0.20552936  0.21081453     0.78200
C250        C  0.37879029  0.24578329  0.13038876     0.77300
C251        C  0.21862049  0.32172981  0.31168184     0.80400
N252        N  0.19042006  0.32212843  0.31094591    -0.77900
C253        C  0.18530111  0.34103569  0.32677568     0.82800
N254        N  0.20880815  0.35985080  0.34294024    -0.77900
C255        C  0.23691338  0.35937749  0.34399212     0.82900
N256        N  0.24122605  0.33988513  0.32843884    -0.79600
C257        C  0.23992919  0.88340579  0.34671138     0.80400
N258        N  0.21071002  0.85583682  0.34735919    -0.77900
C259        C  0.18674936  0.85179496  0.33178212     0.82800
N260        N  0.19236782  0.87564048  0.31554321    -0.77900
C261        C  0.22149450  0.90325556  0.31497819     0.82900
N262        N  0.24487295  0.90680879  0.33058752    -0.79600
C263        C  0.45745344  0.43620548  0.01806651     0.80400
N264        N  0.43497127  0.42885638  0.00050458    -0.77900
C265        C  0.44091925  0.44853200  0.98116430     0.82800
N266        N  0.46996643  0.47606109  0.97933150    -0.77900
C267        C  0.49294873  0.48367078  0.99672817     0.82900
N268        N  0.48651851  0.46360847  0.01605311    -0.79600
Zn269      Zn  0.16412690  0.82977564  0.87216134     1.49700
Zn270      Zn  0.13925620  0.78659760  0.82340671     1.49400
Zn271      Zn  0.14532705  0.85698698  0.82494955     1.49100
Zn272      Zn  0.20835952  0.85101139  0.82477509     1.49500
O273        O  0.16408813  0.83091477  0.83646700    -1.84000
O274        O  0.13965873  0.78324773  0.88420624    -0.74600
O275        O  0.10328084  0.78225341  0.80147677    -0.74400
O276        O  0.12992616  0.87237074  0.85304456    -0.73900
O277        O  0.11959194  0.75385864  0.85069626    -0.74600
O278        O  0.14170344  0.85304217  0.88584196    -0.74200
O279        O  0.10710818  0.83073804  0.80251095    -0.74800
O280        O  0.21892862  0.88846394  0.80195671    -0.74200
O281        O  0.16766267  0.77493637  0.80341997    -0.75000
O282        O  0.17767068  0.89646454  0.80629063    -0.74300
O283        O  0.21570001  0.81874368  0.80673296    -0.74800
O284        O  0.24015702  0.86801756  0.85251928    -0.74700
O285        O  0.21005504  0.85216763  0.88554950    -0.74500
C286        C  0.12254211  0.75607821  0.87365192     0.77300
C287        C  0.09354040  0.80160167  0.79488567     0.77800
C288        C  0.12974645  0.86887140  0.87587445     0.76700
C289        C  0.20507960  0.90479992  0.79734027     0.77100
C290        C  0.19763602  0.79015034  0.79885512     0.78200
C291        C  0.23751015  0.86646447  0.87543424     0.77300
C292        C  0.89180301  0.66258485  0.64348507     0.80400
N293        N  0.91372377  0.68006604  0.66089241    -0.77900
C294        C  0.90728224  0.69649815  0.67789540     0.82800
N295        N  0.87828074  0.69516110  0.67768223    -0.77900
C296        C  0.85578333  0.67749234  0.66048943     0.82900
N297        N  0.86271469  0.66125068  0.64338041    -0.79600
C298        C  0.34942518  0.11585155  0.64945043     0.80400
N299        N  0.34712939  0.14330174  0.64946705    -0.77900
C300        C  0.32834691  0.14714310  0.66614349     0.82800
N301        N  0.31157864  0.12303133  0.68240285    -0.77900
C302        C  0.31386077  0.09562230  0.68242592     0.82900
N303        N  0.33305398  0.09255808  0.66604676    -0.79600
C304        C  0.96842405  0.54121404  0.01376084     0.80400
N305        N  0.98648417  0.56457527  0.99769749    -0.77900
C306        C  0.00645731  0.56115718  0.98235121     0.82800
N307        N  0.00792766  0.53329604  0.98287169    -0.77900
C308        C  0.98947565  0.50920415  0.99868489     0.82900
N309        N  0.96994180  0.51343936  0.01427710    -0.79600
C310        C  0.45589750  0.02554491  0.01039935     0.80400
N311        N  0.43203642  0.00573154  0.99494059    -0.77900
C312        C  0.43688460  0.98808198  0.97803274     0.82800
N313        N  0.46578773  0.98952764  0.97684754    -0.77900
C314        C  0.48992371  0.00861498  0.99245001     0.82900
N315        N  0.48498227  0.02684282  0.00912257    -0.79600
C316        C  0.98886344  0.01977288  0.06624987     0.03300
C317        C  0.02237433  0.03934865  0.06732113    -0.12900
C318        C  0.04213316  0.02541820  0.06658931     0.00800
C319        C  0.02820826  0.99175176  0.06443384    -0.11400
C320        C  0.99473318  0.97202073  0.06366099     0.03300
C321        C  0.97523774  0.98624203  0.06349282    -0.10800
H322        H  0.03298869  0.06508446  0.07042530     0.08900
H323        H  0.04329954  0.98072268  0.06545140     0.06400
H324        H  0.94940339  0.97100341  0.06361292     0.06200
C325        C  0.64841642  0.34693809  0.42121043     0.03300
C326        C  0.68201554  0.36416857  0.41940398    -0.12900
C327        C  0.69932497  0.34764033  0.41815728     0.00800
C328        C  0.68291126  0.31372642  0.41812270    -0.11400
C329        C  0.64935750  0.29643627  0.41977813     0.03300
C330        C  0.63220062  0.31303767  0.42129506    -0.10800
H331        H  0.69477765  0.39044821  0.42011132     0.08900
H332        H  0.69623448  0.30093208  0.41799958     0.06400
H333        H  0.60636688  0.29962175  0.42355650     0.06200
C334        C  0.34399289  0.64244253  0.61469127     0.03300
C335        C  0.31052634  0.62788011  0.61268327    -0.12900
C336        C  0.29584502  0.64689146  0.61043072     0.00800
C337        C  0.31490111  0.68073013  0.61080577    -0.11400
C338        C  0.34847297  0.69568795  0.61334806     0.03300
C339        C  0.36262232  0.67622081  0.61663135    -0.10800
H340        H  0.29625139  0.60187695  0.61032553     0.08900
H341        H  0.30376327  0.69535586  0.60726633     0.06400
H342        H  0.38850422  0.68739653  0.61784924     0.06200
C343        C  0.00606334  0.97429430  0.92824903     0.03300
C344        C  0.97266644  0.96105308  0.92582858    -0.12900
C345        C  0.95955513  0.98143008  0.92267416     0.00800
C346        C  0.97980002  0.01494487  0.92204630    -0.11400
C347        C  0.01302171  0.02851610  0.92527468     0.03300
C348        C  0.02583240  0.00804145  0.92926848    -0.10800
H349        H  0.95720744  0.93505124  0.92474012     0.08900
H350        H  0.96976136  0.03038853  0.91791484     0.06400
H351        H  0.05160107  0.01836668  0.93106014     0.06200
C352        C  0.31517451  0.68556411  0.72751648     0.03300
C353        C  0.34855406  0.69882819  0.72515282    -0.12900
C354        C  0.36222841  0.67871245  0.72583675     0.00800
C355        C  0.34224670  0.64509875  0.72698522    -0.11400
C356        C  0.30895819  0.63157436  0.72916857     0.03300
C357        C  0.29550716  0.65181854  0.72881344    -0.10800
H358        H  0.36404973  0.72486123  0.72527374     0.08900
H359        H  0.35287657  0.62973359  0.72879283     0.06400
H360        H  0.26993923  0.64145411  0.73182760     0.06200
C361        C  0.68907169  0.32353366  0.26290998     0.03300
C362        C  0.70399306  0.35744441  0.26278204    -0.12900
C363        C  0.68558856  0.37294549  0.26391878     0.00800
C364        C  0.65199774  0.35405585  0.26592683    -0.11400
C365        C  0.63687616  0.32010425  0.26551125     0.03300
C366        C  0.65555176  0.30503116  0.26443783    -0.10800
H367        H  0.72972934  0.37167175  0.26022980     0.08900
H368        H  0.63752806  0.36568631  0.26595632     0.06400
H369        H  0.64386064  0.27888015  0.26311167     0.06200
C370        C  0.22089764  0.93379858  0.78107987     0.01500
C371        C  0.20209212  0.94240632  0.76613751     0.04300
C372        C  0.21693995  0.97013907  0.75136912    -0.11800
C373        C  0.25062370  0.98828357  0.74975315     0.23600
C374        C  0.26952248  0.97940329  0.76390791    -0.12300
C375        C  0.25491379  0.95310985  0.78010202     0.05000
C376        C  0.26602395  0.01608582  0.73257662     0.27400
C377        C  0.26572102  0.01023094  0.70759668    -0.13000
C378        C  0.27940211  0.03623871  0.69121228     0.05500
C379        C  0.29548422  0.06861373  0.69972156    -0.09000
C380        C  0.29568488  0.07444131  0.72481753     0.06300
C381        C  0.28040873  0.04826493  0.74105947    -0.13300
Br382      Br  0.31567197  0.00316461  0.76068507    -0.05400
Br383      Br  0.15591981  0.91545420  0.76395981     0.00200
Br384      Br  0.27416299  0.02699403  0.65694042     0.00700
Br385      Br  0.27913522  0.05632462  0.77508598    -0.03800
Br386      Br  0.28231198  0.94540798  0.80164422     0.00800
Br387      Br  0.19109470  0.98356260  0.73312849    -0.03000
Br388      Br  0.24697215  0.96631509  0.69583614    -0.03900
Br389      Br  0.31831273  0.11800225  0.73743486     0.00100
C390        C  0.06598443  0.78982201  0.77774323     0.01500
C391        C  0.03776573  0.79027803  0.78416365     0.04300
C392        C  0.01095225  0.77709740  0.76837342    -0.11800
C393        C  0.01229280  0.76377651  0.74595520     0.23600
C394        C  0.04087342  0.76441951  0.73917417    -0.12300
C395        C  0.06751519  0.77716086  0.75503774     0.05000
C396        C  0.98327481  0.74737663  0.72999734     0.27400
C397        C  0.96234809  0.71376629  0.73214066    -0.13000
C398        C  0.93676686  0.69740263  0.71560085     0.05500
C399        C  0.93161692  0.71453973  0.69695091    -0.09000
C400        C  0.95176176  0.74835828  0.69534398     0.06300
C401        C  0.97757994  0.76473220  0.71179227    -0.13300
Br402      Br  0.04326231  0.74743219  0.70809548    -0.05400
Br403      Br  0.03511230  0.80726250  0.81517704     0.00200
Br404      Br  0.90893218  0.65125068  0.71818673     0.00700
Br405      Br  0.00591875  0.81074347  0.70899330    -0.03800
Br406      Br  0.10646480  0.77794043  0.74532307     0.00800
Br407      Br  0.97195448  0.77640089  0.77760628    -0.03000
Br408      Br  0.96939791  0.69005455  0.75745437    -0.03900
Br409      Br  0.94487480  0.77190846  0.66985502     0.00100
C410        C  0.26722209  0.88214470  0.89047613     0.01500
C411        C  0.27190607  0.90615124  0.90755617     0.04300
C412        C  0.30083725  0.92223670  0.92088990    -0.11800
C413        C  0.32539662  0.91463688  0.91720643     0.23600
C414        C  0.32077847  0.89065202  0.90022083    -0.12300
C415        C  0.29175806  0.87434125  0.88698074     0.05000
C416        C  0.35587398  0.93184833  0.93143936     0.27400
C417        C  0.38085399  0.96216018  0.92370019    -0.13000
C418        C  0.40808391  0.98008461  0.93854713     0.05500
C419        C  0.41059846  0.96763077  0.96106140    -0.09000
C420        C  0.38653557  0.93658459  0.96816288     0.06300
C421        C  0.35916496  0.91877672  0.95345012    -0.13300
Br422      Br  0.35446739  0.88043448  0.89506516    -0.05400
Br423      Br  0.23948607  0.91843175  0.91182152     0.00200
Br424      Br  0.44156562  0.02215503  0.92847060     0.00700
Br425      Br  0.32563097  0.87685328  0.96371521    -0.03800
Br426      Br  0.28520978  0.84036610  0.86472755     0.00800
Br427      Br  0.30719033  0.95514356  0.94411769    -0.03000
Br428      Br  0.37726072  0.97931757  0.89299059    -0.03900
Br429      Br  0.39106800  0.91877401  0.99826660     0.00100
C430        C  0.02648899  0.58842429  0.96576371     0.01500
C431        C  0.02777182  0.58325387  0.94072064     0.04300
C432        C  0.04331192  0.60989896  0.92491476    -0.11800
C433        C  0.05715264  0.64180066  0.93387773     0.23600
C434        C  0.05632088  0.64698511  0.95883477    -0.12300
C435        C  0.04193347  0.62055963  0.97476999     0.05000
C436        C  0.07362914  0.67012245  0.91735368     0.27400
C437        C  0.10739387  0.68668047  0.91562316    -0.13000
C438        C  0.12335717  0.71483344  0.90142621     0.05500
C439        C  0.10565296  0.72632699  0.88846105    -0.09000
C440        C  0.07181512  0.70944665  0.88983084     0.06300
C441        C  0.05586057  0.68153786  0.90434832    -0.13300
Br442      Br  0.07437417  0.69058341  0.97111557    -0.05400
Br443      Br  0.00714475  0.53995032  0.92760514     0.00200
Br444      Br  0.16956193  0.73739581  0.89937485     0.00700
Br445      Br  0.00970110  0.65926624  0.90692267    -0.03800
Br446      Br  0.04525567  0.62890929  0.00917580     0.00800
Br447      Br  0.04527579  0.60290934  0.89080166    -0.03000
Br448      Br  0.13170330  0.67061544  0.93283647    -0.03900
Br449      Br  0.04742684  0.72547381  0.87267804     0.00100
C450        C  0.21226391  0.77477611  0.78403651     0.01500
C451        C  0.23614549  0.79347353  0.76682552     0.04300
C452        C  0.25294086  0.78041071  0.75484803    -0.11800
C453        C  0.24550690  0.74839675  0.75936827     0.23600
C454        C  0.22032102  0.72894298  0.77516553    -0.12300
C455        C  0.20391113  0.74206833  0.78768206     0.05000
C456        C  0.26593292  0.73594427  0.74930858     0.27400
C457        C  0.25814854  0.71931306  0.72707998    -0.13000
C458        C  0.27581864  0.70477952  0.71901524     0.05500
C459        C  0.30101475  0.70632008  0.73337517    -0.09000
C460        C  0.30964062  0.72435001  0.75517624     0.06300
C461        C  0.29238011  0.73940823  0.76287553    -0.13300
Br462      Br  0.20926840  0.68445896  0.78019404    -0.05400
Br463      Br  0.24557036  0.83682480  0.75876738     0.00200
Br464      Br  0.26523411  0.68243360  0.68840112     0.00700
Br465      Br  0.30399149  0.76380959  0.79270432    -0.03800
Br466      Br  0.17183470  0.71546553  0.81103433     0.00800
Br467      Br  0.28694362  0.80654861  0.73266700    -0.03000
Br468      Br  0.22252224  0.71558025  0.70822265    -0.03900
Br469      Br  0.34311315  0.72641165  0.77597178     0.00100
C470        C  0.11489394  0.88355053  0.89083009     0.01500
C471        C  0.08610199  0.86377805  0.90329274     0.04300
C472        C  0.06893673  0.87755535  0.91373839    -0.11800
C473        C  0.08036053  0.91100674  0.91155150     0.23600
C474        C  0.11036229  0.93105024  0.90076420    -0.12300
C475        C  0.12764182  0.91735366  0.89049865     0.05000
C476        C  0.05894184  0.92435152  0.91714047     0.27400
C477        C  0.03848448  0.92452638  0.89885029    -0.13000
C478        C  0.01985937  0.93932091  0.90292728     0.05500
C479        C  0.02129977  0.95387559  0.92550961    -0.09000
C480        C  0.04078718  0.95244421  0.94415885     0.06300
C481        C  0.05981157  0.93798658  0.93990443    -0.13300
Br482      Br  0.12677320  0.97708316  0.89887194    -0.05400
Br483      Br  0.06876840  0.81756149  0.90428089     0.00200
Br484      Br  0.99434336  0.94145238  0.87666373     0.00700
Br485      Br  0.08805751  0.93792706  0.96479218    -0.03800
Br486      Br  0.16867033  0.94480633  0.87565461     0.00800
Br487      Br  0.02880004  0.85057202  0.92984000    -0.03000
Br488      Br  0.03733471  0.90581229  0.86761542    -0.03900
Br489      Br  0.04129676  0.97027788  0.97551624     0.00100
C490        C  0.07677112  0.04516972  0.07223342     0.01500
C491        C  0.09981435  0.05052729  0.05450050     0.04300
C492        C  0.13256048  0.06532347  0.06087455    -0.11800
C493        C  0.14240594  0.07626620  0.08473713     0.23600
C494        C  0.11953025  0.07282310  0.10205658    -0.12300
C495        C  0.08674346  0.05670191  0.09599359     0.05000
C496        C  0.17642367  0.09002988  0.09236937     0.27400
C497        C  0.18546367  0.07095309  0.10611615    -0.13000
C498        C  0.21557458  0.08524495  0.11778913     0.05500
C499        C  0.23777173  0.11869907  0.11459151    -0.09000
C500        C  0.22956874  0.13694148  0.09873616     0.06300
C501        C  0.19866682  0.12283047  0.08827576    -0.13300
Br502      Br  0.13322236  0.08956441  0.13438281    -0.05400
Br503      Br  0.08640958  0.03818270  0.02145426     0.00200
Br504      Br  0.22415159  0.05871205  0.13972856     0.00700
Br505      Br  0.18607707  0.14870469  0.06918475    -0.03800
Br506      Br  0.05554240  0.04900731  0.12073051     0.00800
Br507      Br  0.16373862  0.06946807  0.03728242    -0.03000
Br508      Br  0.15554834  0.02523314  0.10976976    -0.03900
Br509      Br  0.26055189  0.18101316  0.09042973     0.00100
C510        C  0.44935087  0.04516745  0.02833697     0.01500
C511        C  0.45915432  0.04772820  0.05285795     0.04300
C512        C  0.45006250  0.06382682  0.06987305    -0.11800
C513        C  0.42999786  0.07630892  0.06293372     0.23600
C514        C  0.42017985  0.07379765  0.03861507    -0.12300
C515        C  0.43072479  0.05950715  0.02128376     0.05000
C516        C  0.41896437  0.09198223  0.08107916     0.27400
C517        C  0.39348787  0.07289361  0.09675815    -0.13000
C518        C  0.38225926  0.08753951  0.11328318     0.05500
C519        C  0.39504296  0.12165925  0.11330069    -0.09000
C520        C  0.42067805  0.14070540  0.09737958     0.06300
C521        C  0.43303071  0.12593118  0.08193184    -0.13300
Br522      Br  0.39118374  0.08909891  0.02921002    -0.05400
Br523      Br  0.48335918  0.02769414  0.06394110     0.00200
Br524      Br  0.35029863  0.06009678  0.13652109     0.00700
Br525      Br  0.46923943  0.15214895  0.06148565    -0.03800
Br526      Br  0.42088081  0.06170954  0.98762108     0.00800
Br527      Br  0.46460407  0.06844831  0.10298596    -0.03000
Br528      Br  0.37332182  0.02631107  0.09503845    -0.03900
Br529      Br  0.43789519  0.18688397  0.09495117     0.00100
C530        C  0.39314299  0.27550947  0.11545591     0.01500
C531        C  0.38488101  0.27367455  0.09078721     0.04300
C532        C  0.39663992  0.30208699  0.07688727    -0.11800
C533        C  0.41674598  0.33258671  0.08754243     0.23600
C534        C  0.42492559  0.33448394  0.11224149    -0.12300
C535        C  0.41336445  0.30600031  0.12611101     0.05000
C536        C  0.42962607  0.36236888  0.07243333     0.27400
C537        C  0.45883122  0.37353242  0.06007672    -0.13000
C538        C  0.46913740  0.39912238  0.04334675     0.05500
C539        C  0.45004157  0.41352759  0.03867910    -0.09000
C540        C  0.42172906  0.40353476  0.05216856     0.06300
C541        C  0.41159084  0.37806539  0.06896229    -0.13300
Br542      Br  0.45131401  0.37621970  0.12708430    -0.05400
Br543      Br  0.35806062  0.23203001  0.07589966     0.00200
Br544      Br  0.50822532  0.41253880  0.02562896     0.00700
Br545      Br  0.37232670  0.36371562  0.08666129    -0.03800
Br546      Br  0.42435833  0.30878200  0.15991094     0.00800
Br547      Br  0.38500369  0.29940297  0.04317957    -0.03000
Br548      Br  0.48376728  0.35236557  0.06523737    -0.03900
Br549      Br  0.39682386  0.42492991  0.04784524     0.00100
C550        C  0.28942399  0.06557437  0.21818196     0.01500
C551        C  0.30901015  0.05285498  0.22574555     0.04300
C552        C  0.29647907  0.02547254  0.24084853    -0.11800
C553        C  0.26405890  0.01023833  0.24801293     0.23600
C554        C  0.24416423  0.02226250  0.23965739    -0.12300
C555        C  0.25686637  0.04996833  0.22486619     0.05000
C556        C  0.25120760  0.98230945  0.26498667     0.27400
C557        C  0.23908007  0.95052366  0.25621466    -0.13000
C558        C  0.22807586  0.92431845  0.27245236     0.05500
C559        C  0.22868302  0.92972529  0.29757974    -0.09000
C560        C  0.24015770  0.96154881  0.30625402     0.06300
C561        C  0.25159040  0.98771239  0.29003688    -0.13300
Br562      Br  0.19958816  0.00083015  0.24876891    -0.05400
Br563      Br  0.35307663  0.07314880  0.21539746     0.00200
Br564      Br  0.21458726  0.88147232  0.26030285     0.00700
Br565      Br  0.26876164  0.03127865  0.30210809    -0.03800
Br566      Br  0.22977187  0.06662139  0.21363401     0.00800
Br567      Br  0.32383745  0.00918330  0.25221528    -0.03000
Br568      Br  0.23853964  0.94322241  0.22190767    -0.03900
Br569      Br  0.24003089  0.96945684  0.34046822     0.00100
C570        C  0.22538009  0.30170778  0.29473270     0.01500
C571        C  0.23222994  0.27814490  0.30401677     0.04300
C572        C  0.24362823  0.26250399  0.28869431    -0.11800
C573        C  0.24790550  0.26992101  0.26386735     0.23600
C574        C  0.23996890  0.29258305  0.25435525    -0.12300
C575        C  0.22897987  0.30863277  0.26975770     0.05000
C576        C  0.26194274  0.25474687  0.24809744     0.27400
C577        C  0.29546127  0.27024531  0.24469564    -0.13000
C578        C  0.30894813  0.25541090  0.23058779     0.05500
C579        C  0.28911159  0.22468304  0.22022296    -0.09000
C580        C  0.25560004  0.20930194  0.22342679     0.06300
C581        C  0.24203371  0.22436040  0.23721133    -0.13300
Br582      Br  0.24522737  0.30227174  0.22029694    -0.05400
Br583      Br  0.22591475  0.26717222  0.33788316     0.00200
Br584      Br  0.35457137  0.27739967  0.22499419     0.00700
Br585      Br  0.19618118  0.20340656  0.24137558    -0.03800
Br586      Br  0.22126109  0.34184385  0.25691574     0.00800
Br587      Br  0.25450555  0.23159270  0.30181283    -0.03000
Br588      Br  0.32287166  0.31165983  0.25971284    -0.03900
Br589      Br  0.22841032  0.16735436  0.20911693     0.00100
C590        C  0.60164968  0.30060964  0.26191748     0.01500
C591        C  0.58060440  0.29142827  0.28170026     0.04300
C592        C  0.54707288  0.27442695  0.27778427    -0.11800
C593        C  0.53462967  0.26627657  0.25407446     0.23600
C594        C  0.55574853  0.27441598  0.23441018    -0.12300
C595        C  0.58910207  0.29145147  0.23830877     0.05000
C596        C  0.49954556  0.25010142  0.24911076     0.27400
C597        C  0.48115002  0.21606160  0.24810002    -0.13000
C598        C  0.45045989  0.20102172  0.23716518     0.05500
C599        C  0.43828423  0.22005277  0.22722415    -0.09000
C600        C  0.45516382  0.25378883  0.23071227     0.06300
C601        C  0.48581814  0.26884318  0.24153929    -0.13300
Br602      Br  0.53880100  0.26248253  0.20194017    -0.05400
Br603      Br  0.59791781  0.30162379  0.31404898     0.00200
Br604      Br  0.42583543  0.15458022  0.23462270     0.00700
Br605      Br  0.51009029  0.31532549  0.24446842    -0.03800
Br606      Br  0.61755244  0.30220032  0.21113206     0.00800
Br607      Br  0.51815762  0.26262111  0.30468230    -0.03000
Br608      Br  0.49898844  0.19035463  0.26026871    -0.03900
Br609      Br  0.43641045  0.27931020  0.22011580     0.00100
C610        C  0.03431343  0.06368990  0.92117048     0.01500
C611        C  0.02979037  0.08648002  0.93440809     0.04300
C612        C  0.04638585  0.11934314  0.92791863    -0.11800
C613        C  0.06879675  0.12983281  0.90904053     0.23600
C614        C  0.07503217  0.10759447  0.89691115    -0.12300
C615        C  0.05712445  0.07447782  0.90233291     0.05000
C616        C  0.08353701  0.16351076  0.90018100     0.27400
C617        C  0.07171901  0.16983675  0.87871937    -0.13000
C618        C  0.08751880  0.20090361  0.86865009     0.05500
C619        C  0.11335280  0.22650515  0.88110208    -0.09000
C620        C  0.12453957  0.22044565  0.90303166     0.06300
C621        C  0.11016297  0.18875027  0.91222537    -0.13300
Br622      Br  0.10718716  0.12258120  0.87193046    -0.05400
Br623      Br  0.00062594  0.07284472  0.96130166     0.00200
Br624      Br  0.07627370  0.20723609  0.83639325     0.00700
Br625      Br  0.12744832  0.17956193  0.94078350    -0.03800
Br626      Br  0.06177586  0.04416304  0.88188277     0.00800
Br627      Br  0.03719059  0.14980971  0.94390258    -0.03000
Br628      Br  0.03416356  0.13566082  0.86283959    -0.03900
Br629      Br  0.15930556  0.25550808  0.92051926     0.00100
C630        C  0.06242785  0.28758784  0.78214388     0.01500
C631        C  0.06274701  0.30096720  0.75910209     0.04300
C632        C  0.03467110  0.28790371  0.74462717    -0.11800
C633        C  0.00592906  0.26122100  0.75265792     0.23600
C634        C  0.00518917  0.24780953  0.77544263    -0.12300
C635        C  0.03290431  0.26118993  0.79035161     0.05000
C636        C  0.97624426  0.24810680  0.73735359     0.27400
C637        C  0.95480437  0.26005808  0.74014272    -0.13000
C638        C  0.92836665  0.24995091  0.72428386     0.05500
C639        C  0.92319473  0.22788665  0.70547904    -0.09000
C640        C  0.94385731  0.21492131  0.70328341     0.06300
C641        C  0.97019455  0.22486486  0.71926028    -0.13300
Br642      Br  0.96579395  0.21066658  0.78598554    -0.05400
Br643      Br  0.10066312  0.33881724  0.74747155     0.00200
Br644      Br  0.89908940  0.26630895  0.72824482     0.00700
Br645      Br  0.99856753  0.20732200  0.71609844    -0.03800
Br646      Br  0.02909679  0.24251717  0.82194789     0.00800
Br647      Br  0.03514747  0.30683458  0.71363442    -0.03000
Br648      Br  0.96224964  0.29095921  0.76538045    -0.03900
Br649      Br  0.93714718  0.18499165  0.67746447     0.00100
C650        C  0.21571158  0.28192316  0.77974259     0.01500
C651        C  0.24020949  0.30049609  0.76311551     0.04300
C652        C  0.25352235  0.28572833  0.74871547    -0.11800
C653        C  0.24217387  0.25219000  0.75053725     0.23600
C654        C  0.21770610  0.23361546  0.76714963    -0.12300
C655        C  0.20471916  0.24843399  0.78184767     0.05000
C656        C  0.25541578  0.23651349  0.73441478     0.27400
C657        C  0.24418464  0.22855174  0.71040646    -0.13000
C658        C  0.25888599  0.21702509  0.69429956     0.05500
C659        C  0.28463607  0.21281910  0.70211815    -0.09000
C660        C  0.29453933  0.21882821  0.72655696     0.06300
C661        C  0.28015775  0.23090109  0.74259955    -0.13300
Br662      Br  0.20166343  0.18768892  0.76939449    -0.05400
Br663      Br  0.25661951  0.34651941  0.76082850     0.00200
Br664      Br  0.24402115  0.20735310  0.66125800     0.00700
Br665      Br  0.29541368  0.24142594  0.77549102    -0.03800
Br666      Br  0.17092220  0.22245513  0.80426038     0.00800
Br667      Br  0.28766954  0.31148184  0.72654954    -0.03000
Br668      Br  0.20921889  0.23450932  0.69944071    -0.03900
Br669      Br  0.32927325  0.21262527  0.73766560     0.00100
C670        C  0.27372730  0.38069685  0.88875083     0.01500
C671        C  0.30352285  0.39253606  0.87703212     0.04300
C672        C  0.33226363  0.40459558  0.89066785    -0.11800
C673        C  0.33130820  0.40362518  0.91616979     0.23600
C674        C  0.30131635  0.39041952  0.92782068    -0.12300
C675        C  0.27278349  0.37966762  0.91419765     0.05000
C676        C  0.36160066  0.41671591  0.93089200     0.27400
C677        C  0.37694294  0.39824600  0.93436168    -0.13000
C678        C  0.40399382  0.40960840  0.94978170     0.05500
C679        C  0.41560417  0.43922187  0.96229253    -0.09000
C680        C  0.40083251  0.45810542  0.95835177     0.06300
C681        C  0.37419478  0.44706667  0.94251228    -0.13300
Br682      Br  0.29933277  0.38627750  0.96253694    -0.05400
Br683      Br  0.30481424  0.39177657  0.84223572     0.00200
Br684      Br  0.42546992  0.38467601  0.95363764     0.00700
Br685      Br  0.35428885  0.47315774  0.93712514    -0.03800
Br686      Br  0.23215813  0.36306427  0.93034735     0.00800
Br687      Br  0.37302330  0.42265269  0.87446993    -0.03000
Br688      Br  0.36015031  0.35673738  0.91869475    -0.03900
Br689      Br  0.41559578  0.49800529  0.97598427     0.00100
C690        C  0.28958668  0.59738169  0.73676005     0.01500
C691        C  0.28519709  0.57218887  0.72104558     0.04300
C692        C  0.27061682  0.54011653  0.72946557    -0.11800
C693        C  0.25989496  0.53310204  0.75348879     0.23600
C694        C  0.26329763  0.55804883  0.76898613    -0.12300
C695        C  0.27823436  0.59013939  0.76073832     0.05000
C696        C  0.24564397  0.49968873  0.76292071     0.27400
C697        C  0.21216547  0.47892087  0.76189297    -0.13000
C698        C  0.19822463  0.44879849  0.77366815     0.05500
C699        C  0.21784105  0.43918949  0.78612035    -0.09000
C700        C  0.25145780  0.45943289  0.78624303     0.06300
C701        C  0.26533235  0.48971935  0.77476787    -0.13300
Br702      Br  0.24835420  0.54818327  0.80188353    -0.05400
Br703      Br  0.29884992  0.58159340  0.68794432     0.00200
Br704      Br  0.15217447  0.42188759  0.77428422     0.00700
Br705      Br  0.31123112  0.51814830  0.77589150    -0.03800
Br706      Br  0.28456079  0.62413169  0.78296675     0.00800
Br707      Br  0.26607618  0.50581666  0.70843928    -0.03000
Br708      Br  0.18551633  0.49248915  0.74506570    -0.03900
Br709      Br  0.27848380  0.44555408  0.80210822     0.00100
C710        C  0.54971765  0.09665731  0.45538906     0.01500
C711        C  0.58167632  0.11022474  0.44754958     0.04300
C712        C  0.59714108  0.14127153  0.43725216    -0.11800
C713        C  0.58061691  0.15866893  0.43488202     0.23600
C714        C  0.54787774  0.14398287  0.44089385    -0.12300
C715        C  0.53245222  0.11298482  0.45124288     0.05000
C716        C  0.59884959  0.19387939  0.43033484     0.27400
C717        C  0.61289622  0.21494948  0.45015538    -0.13000
C718        C  0.62986558  0.24848934  0.44652820     0.05500
C719        C  0.63247847  0.26111070  0.42311691    -0.09000
C720        C  0.61832130  0.24013611  0.40326415     0.06300
C721        C  0.60175939  0.20641659  0.40683909    -0.13300
Br722      Br  0.52487014  0.16722758  0.43620740    -0.05400
Br723      Br  0.60477310  0.08709588  0.45235270     0.00200
Br724      Br  0.64899378  0.27721480  0.47376183     0.00700
Br725      Br  0.58304692  0.17737515  0.37978849    -0.03800
Br726      Br  0.48800024  0.09322170  0.46042297     0.00800
Br727      Br  0.64149340  0.16096298  0.42772633    -0.03000
Br728      Br  0.60839716  0.19771458  0.48242261    -0.03900
Br729      Br  0.62138146  0.25778689  0.37138245     0.00100
C730        C  0.36888230  0.11000674  0.63151618     0.01500
C731        C  0.39834839  0.11265266  0.63871089     0.04300
C732        C  0.41373523  0.10050628  0.62380895    -0.11800
C733        C  0.39947988  0.08504142  0.60174429     0.23600
C734        C  0.37049566  0.08328335  0.59418204    -0.12300
C735        C  0.35536196  0.09588099  0.60894779     0.05000
C736        C  0.41466308  0.07018510  0.58672667     0.27400
C737        C  0.43637956  0.08822403  0.56832890    -0.13000
C738        C  0.45085037  0.07434995  0.55419868     0.05500
C739        C  0.44349515  0.04200519  0.55814443    -0.09000
C740        C  0.42154032  0.02388399  0.57657497     0.06300
C741        C  0.40737178  0.03799600  0.59083819    -0.13300
Br742      Br  0.35096496  0.06239077  0.56397503    -0.05400
Br743      Br  0.41703486  0.13210008  0.66947959     0.00200
Br744      Br  0.47965256  0.09955490  0.52866017     0.00700
Br745      Br  0.37797873  0.01336173  0.61624933    -0.03800
Br746      Br  0.31521422  0.09237684  0.59887239     0.00800
Br747      Br  0.45393964  0.10413609  0.63388745    -0.03000
Br748      Br  0.44598623  0.13205775  0.56243065    -0.03900
Br749      Br  0.41179182  0.98011442  0.58319365     0.00100
C750        C  0.40203733  0.94506656  0.44301227     0.01500
C751        C  0.38247274  0.91150730  0.43927682     0.04300
C752        C  0.35595324  0.89967643  0.42332574    -0.11800
C753        C  0.34865987  0.92135656  0.41124719     0.23600
C754        C  0.36869527  0.95497824  0.41459629    -0.12300
C755        C  0.39559986  0.96678062  0.43011564     0.05000
C756        C  0.32016728  0.90894621  0.39483879     0.27400
C757        C  0.32406446  0.90859526  0.36966745    -0.13000
C758        C  0.29752509  0.89884328  0.35401097     0.05500
C759        C  0.26665245  0.88901051  0.36342300    -0.09000
C760        C  0.26266427  0.88848495  0.38872137     0.06300
C761        C  0.28935963  0.89849818  0.40433500    -0.13300
Br762      Br  0.35889530  0.98484416  0.39819342    -0.05400
Br763      Br  0.39296586  0.88191251  0.45519845     0.00200
Br764      Br  0.30379960  0.89897849  0.31954880     0.00700
Br765      Br  0.28416231  0.89934173  0.43881886    -0.03800
Br766      Br  0.42361873  0.01277573  0.43384999     0.00800
Br767      Br  0.32966945  0.85379468  0.41776970    -0.03000
Br768      Br  0.36612466  0.92218211  0.35669853    -0.03900
Br769      Br  0.22126628  0.87666995  0.40210980     0.00100
C770        C  0.36856366  0.73096055  0.60821431     0.01500
C771        C  0.39029776  0.74174761  0.58857752     0.04300
C772        C  0.40569990  0.77441234  0.58159026    -0.11800
C773        C  0.39837132  0.79621145  0.59313634     0.23600
C774        C  0.37757911  0.78596959  0.61306177    -0.12300
C775        C  0.36349475  0.75368476  0.62106097     0.05000
C776        C  0.41087556  0.82907442  0.58283677     0.27400
C777        C  0.44042921  0.85489908  0.59080980    -0.13000
C778        C  0.45449585  0.88466765  0.57846673     0.05500
C779        C  0.43941309  0.88847909  0.55763723    -0.09000
C780        C  0.40879922  0.86295098  0.55055893     0.06300
C781        C  0.39459786  0.83349083  0.56324676    -0.13300
Br782      Br  0.36727621  0.81589580  0.62852109    -0.05400
Br783      Br  0.39739844  0.71206898  0.56932332     0.00200
Br784      Br  0.49382254  0.92041397  0.59083036     0.00700
Br785      Br  0.35330461  0.79827418  0.55317248    -0.03800
Br786      Br  0.33764110  0.74080018  0.64984486     0.00800
Br787      Br  0.43588838  0.78932260  0.55521038    -0.03000
Br788      Br  0.46202064  0.84883217  0.61815641    -0.03900
Br789      Br  0.38677466  0.86674297  0.52247804     0.00100
C790        C  0.97961428  0.93687601  0.06814411     0.01500
C791        C  0.98182824  0.92595072  0.09144205     0.04300
C792        C  0.96381440  0.89294833  0.09705404    -0.11800
C793        C  0.94332868  0.87070464  0.07954681     0.23600
C794        C  0.94190908  0.88130648  0.05603465    -0.12300
C795        C  0.96002236  0.91443570  0.05033795     0.05000
C796        C  0.92243652  0.83656044  0.08671911     0.27400
C797        C  0.93490469  0.81533598  0.08729272    -0.13000
C798        C  0.91789383  0.78536210  0.09907287     0.05500
C799        C  0.88843016  0.77664780  0.11031161    -0.09000
C800        C  0.87493987  0.79691211  0.10827706     0.06300
C801        C  0.89191892  0.82686000  0.09644967    -0.13300
Br802      Br  0.91459852  0.85047736  0.03198851    -0.05400
Br803      Br  0.00766097  0.95620107  0.11644714     0.00200
Br804      Br  0.93616521  0.75740688  0.10144231     0.00700
Br805      Br  0.87434383  0.85550576  0.09472317    -0.03800
Br806      Br  0.95780213  0.92928842  0.01831978     0.00800
Br807      Br  0.96614637  0.87816952  0.12916604    -0.03000
Br808      Br  0.97630363  0.82848090  0.07332314    -0.03900
Br809      Br  0.83339561  0.78371360  0.12194853     0.00100
C810        C  0.94889528  0.54774435  0.03109095     0.01500
C811        C  0.92740632  0.55754007  0.02218243     0.04300
C812        C  0.91468794  0.57158755  0.03779650    -0.11800
C813        C  0.92246188  0.57491051  0.06261119     0.23600
C814        C  0.94212749  0.56309939  0.07184956    -0.12300
C815        C  0.95551937  0.54974362  0.05612954     0.05000
C816        C  0.91038770  0.59128486  0.07891249     0.27400
C817        C  0.93040327  0.62408103  0.08531033    -0.13000
C818        C  0.91910851  0.63943031  0.10101323     0.05500
C819        C  0.88755654  0.62231133  0.10988300    -0.09000
C820        C  0.86727359  0.58983879  0.10299569     0.06300
C821        C  0.87883674  0.57417736  0.08789132    -0.13300
Br822      Br  0.95160089  0.56646373  0.10601415    -0.05400
Br823      Br  0.91512906  0.55138964  0.98847082     0.00200
Br824      Br  0.94657140  0.68401951  0.11017888     0.00700
Br825      Br  0.85159705  0.52921924  0.07954160    -0.03800
Br826      Br  0.98467403  0.53642093  0.06881880     0.00800
Br827      Br  0.88779048  0.58771327  0.02503782    -0.03000
Br828      Br  0.97309917  0.64804997  0.07221082    -0.03900
Br829      Br  0.82342910  0.56705099  0.11399730     0.00100
C830        C  0.69911277  0.77046247  0.29887563     0.01500
C831        C  0.68306379  0.74047414  0.28643917     0.04300
C832        C  0.69982748  0.73184614  0.26999387    -0.11800
C833        C  0.73260044  0.75307611  0.26558297     0.23600
C834        C  0.74842704  0.78342275  0.27720726    -0.12300
C835        C  0.73190425  0.79200678  0.29398970     0.05000
C836        C  0.75064753  0.74261255  0.24963920     0.27400
C837        C  0.76379605  0.72428048  0.25932353    -0.13000
C838        C  0.77936520  0.71274643  0.24414431     0.05500
C839        C  0.78212581  0.71970698  0.21924128    -0.09000
C840        C  0.76960480  0.73861740  0.20962443     0.06300
C841        C  0.75369627  0.74986873  0.22476258    -0.13300
Br842      Br  0.79307599  0.81283582  0.27041131    -0.05400
Br843      Br  0.63777657  0.71110438  0.29122197     0.00200
Br844      Br  0.79748036  0.68786372  0.25749480     0.00700
Br845      Br  0.73548978  0.77469639  0.21147561    -0.03800
Br846      Br  0.75525752  0.83217881  0.31157584     0.00800
Br847      Br  0.67808097  0.69061776  0.25352414    -0.03000
Br848      Br  0.76022095  0.71486412  0.29344492    -0.03900
Br849      Br  0.77358884  0.74835671  0.17558462     0.00100
C850        C  0.07689566  0.78353668  0.29794478     0.01500
C851        C  0.06090922  0.75308721  0.28612357     0.04300
C852        C  0.03533540  0.74561478  0.26991233    -0.11800
C853        C  0.02553711  0.76845514  0.26496741     0.23600
C854        C  0.04206988  0.79924082  0.27599859    -0.12300
C855        C  0.06754089  0.80675865  0.29248914     0.05000
C856        C  0.99693138  0.75914122  0.24896720     0.27400
C857        C  0.99990562  0.75985428  0.22357495    -0.13000
C858        C  0.97225271  0.74676697  0.20863740     0.05500
C859        C  0.94145053  0.73283492  0.21896489    -0.09000
C860        C  0.93856576  0.73377631  0.24424496     0.06300
C861        C  0.96617638  0.74681316  0.25919379    -0.13300
Br862      Br  0.02918435  0.83079088  0.26876096    -0.05400
Br863      Br  0.07444185  0.72147034  0.29127749     0.00200
Br864      Br  0.97636728  0.74791992  0.17395823     0.00700
Br865      Br  0.96188945  0.74685407  0.29381659    -0.03800
Br866      Br  0.08800209  0.84818785  0.30864218     0.00800
Br867      Br  0.01304091  0.70355020  0.25466382    -0.03000
Br868      Br  0.04190924  0.77814239  0.20937707    -0.03900
Br869      Br  0.89658013  0.71630008  0.25838405     0.00100
C870        C  0.79158786  0.56974721  0.21596065     0.01500
C871        C  0.79887812  0.54518679  0.21008004     0.04300
C872        C  0.78274336  0.51491966  0.22170779    -0.11800
C873        C  0.75837192  0.50842323  0.23853321     0.23600
C874        C  0.75167989  0.53302557  0.24496465    -0.12300
C875        C  0.76860197  0.56374296  0.23408755     0.05000
C876        C  0.73731649  0.47463872  0.24694332     0.27400
C877        C  0.71203630  0.45288417  0.23185736    -0.13000
C878        C  0.69446256  0.41985367  0.23774985     0.05500
C879        C  0.70128300  0.40840032  0.25933172    -0.09000
C880        C  0.72511113  0.43069763  0.27530711     0.06300
C881        C  0.74337373  0.46368050  0.26896715    -0.13300
Br882      Br  0.71806617  0.52392757  0.26781564    -0.05400
Br883      Br  0.82843339  0.55126087  0.18442000     0.00200
Br884      Br  0.66279123  0.39038115  0.21501693     0.00700
Br885      Br  0.77724645  0.49379385  0.29000525    -0.03800
Br886      Br  0.76026823  0.59754900  0.24445095     0.00800
Br887      Br  0.79270522  0.48140962  0.21376315    -0.03000
Br888      Br  0.70222484  0.46848064  0.20256284    -0.03900
Br889      Br  0.73246684  0.41607395  0.30596673     0.00100
C890        C  0.26156642  0.63116860  0.60315120     0.01500
C891        C  0.25330039  0.63376342  0.57902804     0.04300
C892        C  0.22123560  0.61571917  0.57119255    -0.11800
C893        C  0.19710434  0.59558325  0.58747753     0.23600
C894        C  0.20508354  0.59356068  0.61171439    -0.12300
C895        C  0.23731394  0.61126486  0.61952539     0.05000
C896        C  0.16347683  0.57677344  0.57863368     0.27400
C897        C  0.14325218  0.59020366  0.57989363    -0.13000
C898        C  0.11335961  0.57518123  0.56785218     0.05500
C899        C  0.10414350  0.54729715  0.55336714    -0.09000
C900        C  0.12401336  0.53294181  0.55331278     0.06300
C901        C  0.15320495  0.54740935  0.56633021    -0.13300
Br902      Br  0.17189201  0.56599938  0.63391519    -0.05400
Br903      Br  0.28579749  0.66123628  0.55625399     0.00200
Br904      Br  0.08509338  0.59279201  0.57225148     0.00700
Br905      Br  0.18030142  0.52802282  0.56653341    -0.03800
Br906      Br  0.24826940  0.60860343  0.65268859     0.00800
Br907      Br  0.21027397  0.61776803  0.53781325    -0.03000
Br908      Br  0.15743501  0.63015401  0.59738906    -0.03900
Br909      Br  0.11355332  0.49495410  0.53418998     0.00100
C910        C  0.05435814  0.60226584  0.44098230     0.01500
C911        C  0.03600811  0.60392268  0.42143359     0.04300
C912        C  0.04871637  0.63149222  0.40640251    -0.11800
C913        C  0.07931582  0.65833943  0.41123954     0.23600
C914        C  0.09786408  0.65657666  0.43045988    -0.12300
C915        C  0.08577689  0.62848037  0.44490932     0.05000
C916        C  0.09135782  0.68870600  0.39662892     0.27400
C917        C  0.11447216  0.69628904  0.37839499    -0.13000
C918        C  0.12493915  0.72446105  0.36424598     0.05500
C919        C  0.11177603  0.74486209  0.36772057    -0.09000
C920        C  0.08881635  0.73738690  0.38601544     0.06300
C921        C  0.07903999  0.70976440  0.40063464    -0.13300
Br922      Br  0.13975271  0.69308157  0.43725663    -0.05400
Br923      Br  0.99250585  0.56947120  0.41589320     0.00200
Br924      Br  0.15606979  0.73420765  0.33911793     0.00700
Br925      Br  0.04837767  0.70045538  0.42608111    -0.03800
Br926      Br  0.11319338  0.62544664  0.46923843     0.00800
Br927      Br  0.02410936  0.63266414  0.37905433    -0.03000
Br928      Br  0.13072297  0.66725013  0.37208237    -0.03900
Br929      Br  0.07062017  0.76505132  0.39095946     0.00100
C930        C  0.94636195  0.40074074  0.55615549     0.01500
C931        C  0.91516823  0.37447980  0.55160039     0.04300
C932        C  0.90176469  0.34732577  0.56710279    -0.11800
C933        C  0.91924453  0.34625312  0.58733801     0.23600
C934        C  0.94983232  0.37288407  0.59237195    -0.12300
C935        C  0.96335063  0.39994751  0.57690648     0.05000
C936        C  0.90630092  0.31680412  0.60293783     0.27400
C937        C  0.88727574  0.31357483  0.62322765    -0.13000
C938        C  0.87768773  0.28717255  0.63913970     0.05500
C939        C  0.88729159  0.26402070  0.63497966    -0.09000
C940        C  0.90570059  0.26686952  0.61444048     0.06300
C941        C  0.91495207  0.29299678  0.59838114    -0.13300
Br942      Br  0.97323520  0.37208084  0.62063529    -0.05400
Br943      Br  0.89125367  0.37475248  0.52349793     0.00200
Br944      Br  0.85225732  0.28313116  0.66711202     0.00700
Br945      Br  0.94039327  0.29685286  0.57043721    -0.03800
Br946      Br  0.00474623  0.43656920  0.58494165     0.00800
Br947      Br  0.85963643  0.31115258  0.56050958    -0.03000
Br948      Br  0.87545667  0.34605657  0.62961943    -0.03900
Br949      Br  0.91921456  0.23546155  0.60886592     0.00100
C950        C  0.90014730  0.64507634  0.62512082     0.01500
C951        C  0.92894123  0.66202542  0.61188081     0.04300
C952        C  0.93941774  0.64516859  0.59691828    -0.11800
C953        C  0.92118094  0.61122808  0.59481776     0.23600
C954        C  0.89176501  0.59435948  0.60716859    -0.12300
C955        C  0.88126331  0.61115594  0.62227291     0.05000
C956        C  0.93338536  0.59338406  0.57999450     0.27400
C957        C  0.92637244  0.58839691  0.55505105    -0.13000
C958        C  0.93898807  0.57270491  0.54092312     0.05500
C959        C  0.95848001  0.56159206  0.55163899    -0.09000
C960        C  0.96513736  0.56615301  0.57663930     0.06300
C961        C  0.95279368  0.58214512  0.59073635    -0.13300
Br962      Br  0.86633698  0.54801166  0.60375478    -0.05400
Br963      Br  0.95383556  0.70864767  0.61364027     0.00200
Br964      Br  0.93027049  0.56708280  0.50667787     0.00700
Br965      Br  0.96247421  0.58882306  0.62482900    -0.03800
Br966      Br  0.84195634  0.58723379  0.64012697     0.00800
Br967      Br  0.97919496  0.66846302  0.57949327    -0.03000
Br968      Br  0.89948776  0.60321543  0.54030746    -0.03900
Br969      Br  0.99046212  0.54963205  0.59163693     0.00100
C970        C  0.73469326  0.36563791  0.41996647     0.01500
C971        C  0.75366471  0.37503822  0.39899183     0.04300
C972        C  0.78741944  0.39210517  0.40104661    -0.11800
C973        C  0.80205363  0.39985801  0.42408084     0.23600
C974        C  0.78301747  0.39010947  0.44500473    -0.12300
C975        C  0.74945634  0.37296289  0.44295206     0.05000
C976        C  0.83740355  0.41822552  0.42699251     0.27400
C977        C  0.85427391  0.40137914  0.43068232    -0.13000
C978        C  0.88566390  0.41769997  0.44018425     0.05500
C979        C  0.90016554  0.45083298  0.44591536    -0.09000
C980        C  0.88428917  0.46821004  0.44037045     0.06300
C981        C  0.85294785  0.45192830  0.43074601    -0.13300
Br982      Br  0.80311609  0.40011843  0.47661717    -0.05400
Br983      Br  0.73325219  0.36431858  0.36760928     0.00200
Br984      Br  0.90779372  0.39418000  0.44732876     0.00700
Br985      Br  0.83020825  0.47509797  0.42443440    -0.03800
Br986      Br  0.72383241  0.35906434  0.47177656     0.00800
Br987      Br  0.81367060  0.40465455  0.37254679    -0.03000
Br988      Br  0.83323981  0.35544046  0.42463483    -0.03900
Br989      Br  0.90478716  0.51385436  0.44738816     0.00100
C990        C  0.60375302  0.55267837  0.02688514     0.01500
C991        C  0.63262995  0.55403649  0.01991239     0.04300
C992        C  0.65859729  0.56507164  0.03633546    -0.11800
C993        C  0.65576119  0.57465910  0.05985481     0.23600
C994        C  0.62634038  0.57162973  0.06723684    -0.12300
C995        C  0.60046277  0.56083560  0.05078175     0.05000
C996        C  0.68422114  0.59007520  0.07629925     0.27400
C997        C  0.69151576  0.57111865  0.09185983    -0.13000
C998        C  0.71794560  0.58609874  0.10788210     0.05500
C999        C  0.73703183  0.62014599  0.10856002    -0.09000
C1000       C  0.72973853  0.63906447  0.09293885     0.06300
C1001       C  0.70359380  0.62405947  0.07673017    -0.13300
Br1002     Br  0.62202585  0.58335585  0.09978097    -0.05400
Br1003     Br  0.63648392  0.54046230  0.98791999     0.00200
Br1004     Br  0.72893271  0.55991571  0.12809293     0.00700
Br1005     Br  0.69430842  0.64999665  0.05486651    -0.03800
Br1006     Br  0.56122329  0.55929309  0.06056662     0.00800
Br1007     Br  0.69842291  0.56792947  0.02654426    -0.03000
Br1008     Br  0.66540322  0.52463133  0.09093502    -0.03900
Br1009     Br  0.75486664  0.68566930  0.09439475     0.00100
C1010       C  0.60341395  0.04047441  0.55450758     0.01500
C1011       C  0.61096281  0.02267405  0.57132065     0.04300
C1012       C  0.64003988  0.03806152  0.58457262    -0.11800
C1013       C  0.66180227  0.07127145  0.58140753     0.23600
C1014       C  0.65512419  0.08881328  0.56410389    -0.12300
C1015       C  0.62646312  0.07345060  0.55036088     0.05000
C1016       C  0.69123040  0.08768462  0.59687606     0.27400
C1017       C  0.68953559  0.09925398  0.61994674    -0.13000
C1018       C  0.71592851  0.11084511  0.63594962     0.05500
C1019       C  0.74440719  0.11158131  0.62881995    -0.09000
C1020       C  0.74689173  0.10203857  0.60520040     0.06300
C1021       C  0.72026784  0.08989518  0.58929560    -0.13300
Br1022     Br  0.68533285  0.13418595  0.55957847    -0.05400
Br1023     Br  0.58153151  0.97744722  0.57731097     0.00200
Br1024     Br  0.71293522  0.12499509  0.66799055     0.00700
Br1025     Br  0.72296064  0.07499335  0.55748642    -0.03800
Br1026     Br  0.62043420  0.09757513  0.52471475     0.00800
Br1027     Br  0.65013202  0.01385142  0.60761913    -0.03000
Br1028     Br  0.65058680  0.09824858  0.62981133    -0.03900
Br1029     Br  0.78628157  0.10419022  0.59513954     0.00100
C1030       C  0.76190267  0.88896129  0.87927373     0.01500
C1031       C  0.77537655  0.87181747  0.89096435     0.04300
C1032       C  0.80723486  0.88844189  0.89952613    -0.11800
C1033       C  0.82511090  0.92235372  0.89829251     0.23600
C1034       C  0.81079273  0.93986116  0.88943059    -0.12300
C1035       C  0.77957985  0.92347128  0.87950638     0.05000
C1036       C  0.85967692  0.93942952  0.90477419     0.27400
C1037       C  0.86957812  0.94530281  0.92916818    -0.13000
C1038       C  0.90237038  0.95922059  0.93512755     0.05500
C1039       C  0.92522169  0.96778337  0.91666492    -0.09000
C1040       C  0.91546616  0.96412659  0.89225019     0.06300
C1041       C  0.88270351  0.94932168  0.88630466    -0.13300
Br1042     Br  0.83497819  0.98662966  0.89008659    -0.05400
Br1043     Br  0.75055788  0.82569837  0.89660479     0.00200
Br1044     Br  0.91622564  0.96748097  0.96842699     0.00700
Br1045     Br  0.86928464  0.94221612  0.85281343    -0.03800
Br1046     Br  0.76317474  0.94970355  0.86543898     0.00800
Br1047     Br  0.82719983  0.86468288  0.91193702    -0.03000
Br1048     Br  0.83814041  0.93449372  0.95421305    -0.03900
Br1049     Br  0.94701821  0.98033226  0.86691097     0.00100
C1050       C  0.78182304  0.71039230  0.69602381     0.01500
C1051       C  0.78022353  0.70355706  0.72097279     0.04300
C1052       C  0.76890665  0.71839563  0.73726303    -0.11800
C1053       C  0.75937252  0.74030384  0.72873995     0.23600
C1054       C  0.76244193  0.74828489  0.70400966    -0.12300
C1055       C  0.77349739  0.73333243  0.68771428     0.05000
C1056       C  0.74417523  0.75343390  0.74531951     0.27400
C1057       C  0.71047533  0.73709213  0.74768539    -0.13000
C1058       C  0.69565918  0.75043200  0.76191495     0.05500
C1059       C  0.71445151  0.77985824  0.77431591    -0.09000
C1060       C  0.74822462  0.79568125  0.77263215     0.06300
C1061       C  0.76302542  0.78272617  0.75791274    -0.13300
Br1062     Br  0.75052791  0.77913330  0.69242331    -0.05400
Br1063     Br  0.79143589  0.67225981  0.73265050     0.00200
Br1064     Br  0.64957080  0.72804866  0.76488786     0.00700
Br1065     Br  0.80905416  0.80530887  0.75452172    -0.03800
Br1066     Br  0.77729314  0.74440315  0.65387075     0.00800
Br1067     Br  0.76509349  0.70781006  0.77115891    -0.03000
Br1068     Br  0.68465700  0.69634151  0.73130750    -0.03900
Br1069     Br  0.77411504  0.83557963  0.79002913     0.00100
C1070       C  0.71103609  0.93202048  0.77220213     0.01500
C1071       C  0.74482707  0.95115407  0.77216125     0.04300
C1072       C  0.76001569  0.97939413  0.75791725    -0.11800
C1073       C  0.74148403  0.98895360  0.74392123     0.23600
C1074       C  0.70767968  0.96995894  0.74417359    -0.12300
C1075       C  0.69253067  0.94145779  0.75809162     0.05000
C1076       C  0.75723341  0.01848623  0.72845443     0.27400
C1077       C  0.76491691  0.04901868  0.73791333    -0.13000
C1078       C  0.77634863  0.07620791  0.72256556     0.05500
C1079       C  0.78013822  0.07299175  0.69761080    -0.09000
C1080       C  0.77385708  0.04269035  0.68843703     0.06300
C1081       C  0.76253453  0.01562405  0.70379779    -0.13300
Br1082     Br  0.68216788  0.98330296  0.72551119    -0.05400
Br1083     Br  0.77028320  0.93807303  0.79118223     0.00200
Br1084     Br  0.78432586  0.11716620  0.73547506     0.00700
Br1085     Br  0.75321676  0.97415925  0.69098797    -0.03800
Br1086     Br  0.64633775  0.91570242  0.75833462     0.00800
Br1087     Br  0.80620371  0.00490273  0.75731493    -0.03000
Br1088     Br  0.75828536  0.05306513  0.77176755    -0.03900
Br1089     Br  0.78070203  0.03812666  0.65466715     0.00100
C1090       C  0.61443215  0.72770988  0.88269227     0.01500
C1091       C  0.58934031  0.69747124  0.87455886     0.04300
C1092       C  0.57831288  0.66976682  0.88927040    -0.11800
C1093       C  0.59238014  0.67199351  0.91215134     0.23600
C1094       C  0.61706591  0.70225544  0.92045641    -0.12300
C1095       C  0.62803487  0.72998681  0.90581563     0.05000
C1096       C  0.58209644  0.64241940  0.92718125     0.27400
C1097       C  0.55842672  0.63385511  0.94504917    -0.13000
C1098       C  0.54994407  0.60678327  0.95999913     0.05500
C1099       C  0.56554046  0.58844096  0.95750247    -0.09000
C1100       C  0.58888209  0.59677156  0.93936647     0.06300
C1101       C  0.59686193  0.62342474  0.92411081    -0.13300
Br1102     Br  0.63593252  0.70553390  0.95196213    -0.05400
Br1103     Br  0.57121947  0.69350108  0.84269334     0.00200
Br1104     Br  0.51823083  0.59597449  0.98485409     0.00700
Br1105     Br  0.62854206  0.63446822  0.89919006    -0.03800
Br1106     Br  0.66106223  0.77136950  0.91782014     0.00800
Br1107     Br  0.54417971  0.62849377  0.87806005    -0.03000
Br1108     Br  0.53850689  0.66003382  0.94952259    -0.03900
Br1109     Br  0.60985970  0.57153834  0.93526761     0.00100
C1110       C  0.55797260  0.77324475  0.77261214     0.01500
C1111       C  0.54275015  0.79066590  0.76539917     0.04300
C1112       C  0.51196976  0.77432559  0.75484820    -0.11800
C1113       C  0.49690753  0.74069788  0.75070645     0.23600
C1114       C  0.51324407  0.72373407  0.75627380    -0.12300
C1115       C  0.54355436  0.73992587  0.76760670     0.05000
C1116       C  0.46257507  0.72274407  0.74351453     0.27400
C1117       C  0.43922849  0.70712829  0.76146468    -0.13000
C1118       C  0.40651608  0.69140564  0.75529770     0.05500
C1119       C  0.39686075  0.69282187  0.73135472    -0.09000
C1120       C  0.42021487  0.70851818  0.71337566     0.06300
C1121       C  0.45307726  0.72267158  0.71934169    -0.13300
Br1122     Br  0.49326054  0.67803627  0.74946662    -0.05400
Br1123     Br  0.56355580  0.83666639  0.77104697     0.00200
Br1124     Br  0.37510140  0.66867527  0.78008758     0.00700
Br1125     Br  0.48521922  0.74215243  0.69463109    -0.03800
Br1126     Br  0.56481750  0.71635226  0.77722606     0.00800
Br1127     Br  0.48942364  0.79751288  0.74774581    -0.03000
Br1128     Br  0.45212272  0.70854770  0.79482802    -0.03900
Br1129     Br  0.40718383  0.71097142  0.68078364     0.00100
C1130       C  0.35953453  0.25705109  0.63482002     0.01500
C1131       C  0.35963958  0.25243845  0.60956497     0.04300
C1132       C  0.37575799  0.27935267  0.59403919    -0.11800
C1133       C  0.39108324  0.31110884  0.60343772     0.23600
C1134       C  0.39090596  0.31579978  0.62853359    -0.12300
C1135       C  0.37586211  0.28903428  0.64419216     0.05000
C1136       C  0.40732876  0.33971724  0.58704672     0.27400
C1137       C  0.44055115  0.35409678  0.58259293    -0.13000
C1138       C  0.45617128  0.38197278  0.56798729     0.05500
C1139       C  0.43865189  0.39556763  0.55759678    -0.09000
C1140       C  0.40536315  0.38093265  0.56177035     0.06300
C1141       C  0.38981803  0.35330672  0.57660703    -0.13300
Br1142     Br  0.41091357  0.35925857  0.64136261    -0.05400
Br1143     Br  0.33597985  0.20958149  0.59580545     0.00200
Br1144     Br  0.50150601  0.40128920  0.56179935     0.00700
Br1145     Br  0.34463851  0.33448532  0.58324781    -0.03800
Br1146     Br  0.37917400  0.29674665  0.67866667     0.00800
Br1147     Br  0.37652301  0.27297604  0.55969935    -0.03000
Br1148     Br  0.46461534  0.33565709  0.59682613    -0.03900
Br1149     Br  0.38123723  0.39936628  0.54762815     0.00100
C1150       C  0.39043009  0.45210221  0.44948235     0.01500
C1151       C  0.38577999  0.47217865  0.43284843     0.04300
C1152       C  0.35895844  0.45888497  0.41707769    -0.11800
C1153       C  0.33732009  0.42533153  0.41680799     0.23600
C1154       C  0.34146396  0.40530107  0.43346835    -0.12300
C1155       C  0.36744194  0.41856673  0.45000085     0.05000
C1156       C  0.31162137  0.41073061  0.39786185     0.27400
C1157       C  0.27942527  0.40074481  0.40340054    -0.13000
C1158       C  0.25485594  0.38405595  0.38604466     0.05500
C1159       C  0.26260028  0.37902070  0.36226528    -0.09000
C1160       C  0.29547761  0.39154849  0.35639399     0.06300
C1161       C  0.31950582  0.40604914  0.37433176    -0.13300
Br1162     Br  0.31169375  0.35928045  0.43314223    -0.05400
Br1163     Br  0.41714877  0.51755316  0.42975030     0.00200
Br1164     Br  0.21082712  0.36650048  0.39615421     0.00700
Br1165     Br  0.36352682  0.41882325  0.36689216    -0.03800
Br1166     Br  0.37027853  0.39025146  0.47373454     0.00800
Br1167     Br  0.35187097  0.48649662  0.39531834    -0.03000
Br1168     Br  0.26917412  0.40976577  0.43509563    -0.03900
Br1169     Br  0.30883102  0.39100216  0.32355947     0.00100
C1170       C  0.59967277  0.55465811  0.55760293     0.01500
C1171       C  0.62624972  0.55120451  0.55082272     0.04300
C1172       C  0.65521218  0.56659795  0.56428073    -0.11800
C1173       C  0.65814000  0.58574094  0.58458613     0.23600
C1174       C  0.63172865  0.58922386  0.59142511    -0.12300
C1175       C  0.60264127  0.57372650  0.57810310     0.05000
C1176       C  0.68885418  0.60209482  0.59887358     0.27400
C1177       C  0.69189611  0.58830357  0.62063017    -0.13000
C1178       C  0.71979342  0.60494597  0.63510545     0.05500
C1179       C  0.74513134  0.63525414  0.62779100    -0.09000
C1180       C  0.74277301  0.64836621  0.60552890     0.06300
C1181       C  0.71471855  0.63193133  0.59115518    -0.13300
Br1182     Br  0.63574857  0.61582165  0.61898541    -0.05400
Br1183     Br  0.62282348  0.52407877  0.52373780     0.00200
Br1184     Br  0.72308481  0.58677489  0.66543038     0.00700
Br1185     Br  0.71113247  0.65086419  0.56130997    -0.03800
Br1186     Br  0.56752507  0.58019717  0.58741142     0.00800
Br1187     Br  0.69103783  0.56124930  0.55514054    -0.03000
Br1188     Br  0.65738952  0.54687914  0.63083535    -0.03900
Br1189     Br  0.77755210  0.68962517  0.59533296     0.00100
C1190       C  0.62864608  0.73572990  0.36936761     0.01500
C1191       C  0.59490414  0.71794865  0.36696882     0.04300
C1192       C  0.57661474  0.69111370  0.38206072    -0.11800
C1193       C  0.59196702  0.68189895  0.39962760     0.23600
C1194       C  0.62565741  0.69993658  0.40219938    -0.12300
C1195       C  0.64392729  0.72660647  0.38704108     0.05000
C1196       C  0.57305351  0.65277662  0.41501923     0.27400
C1197       C  0.55990514  0.65545613  0.43701009    -0.13000
C1198       C  0.54434881  0.62851355  0.45250399     0.05500
C1199       C  0.54217151  0.59870711  0.44622417    -0.09000
C1200       C  0.55432537  0.59580192  0.42374480     0.06300
C1201       C  0.56964180  0.62269916  0.40822552    -0.13300
Br1202     Br  0.64675434  0.68759594  0.42632327    -0.05400
Br1203     Br  0.57397266  0.72914462  0.34195964     0.00200
Br1204     Br  0.52768513  0.63320424  0.48293978     0.00700
Br1205     Br  0.58643764  0.61862796  0.37766031    -0.03800
Br1206     Br  0.69005810  0.75060448  0.39033909     0.00800
Br1207     Br  0.53060671  0.66625638  0.37826980    -0.03000
Br1208     Br  0.56426122  0.69652649  0.44616290    -0.03900
Br1209     Br  0.54899391  0.55462661  0.41368461     0.00100
C1210       C  0.54378978  0.44294974  0.45813953     0.01500
C1211       C  0.53194682  0.40969523  0.46331121     0.04300
C1212       C  0.54734413  0.39364876  0.45379273    -0.11800
C1213       C  0.57529128  0.41073324  0.43999611     0.23600
C1214       C  0.58673502  0.44336787  0.43420177    -0.12300
C1215       C  0.57085109  0.45940462  0.44290741     0.05000
C1216       C  0.59479684  0.39542785  0.43436763     0.27400
C1217       C  0.61644835  0.39608355  0.45194044    -0.13000
C1218       C  0.63374551  0.38000106  0.44767483     0.05500
C1219       C  0.63036521  0.36414997  0.42542119    -0.09000
C1220       C  0.60884468  0.36373295  0.40772332     0.06300
C1221       C  0.59089540  0.37920085  0.41227685    -0.13300
Br1222     Br  0.62513705  0.46626491  0.41510971    -0.05400
Br1223     Br  0.49678693  0.38604116  0.48541438     0.00200
Br1224     Br  0.66023883  0.37790161  0.47313947     0.00700
Br1225     Br  0.56061724  0.37787315  0.38858179    -0.03800
Br1226     Br  0.58659927  0.50380356  0.43346095     0.00800
Br1227     Br  0.53130854  0.34837961  0.46064219    -0.03000
Br1228     Br  0.62190810  0.41869662  0.48212647    -0.03900
Br1229     Br  0.60400123  0.34202512  0.37728689     0.00100
C1230       C  0.44534803  0.55063416  0.56122092     0.01500
C1231       C  0.46092226  0.58420469  0.56548981     0.04300
C1232       C  0.44485598  0.59773596  0.57783348    -0.11800
C1233       C  0.41309979  0.57770576  0.58570931     0.23600
C1234       C  0.39811228  0.54395201  0.58246739    -0.12300
C1235       C  0.41426842  0.53041644  0.57026239     0.05000
C1236       C  0.39401611  0.59252609  0.59394018     0.27400
C1237       C  0.39374574  0.60042485  0.61842821    -0.13000
C1238       C  0.37688811  0.61625076  0.62552438     0.05500
C1239       C  0.35988002  0.62366498  0.60817514    -0.09000
C1240       C  0.35960614  0.61491999  0.58373796     0.06300
C1241       C  0.37675119  0.59959032  0.57667115    -0.13300
Br1242     Br  0.35469692  0.51666834  0.59340213    -0.05400
Br1243     Br  0.50384189  0.61162915  0.55370022     0.00200
Br1244     Br  0.37714124  0.62779924  0.65886180     0.00700
Br1245     Br  0.37741203  0.58898036  0.54304390    -0.03800
Br1246     Br  0.39305005  0.48442929  0.56442376     0.00800
Br1247     Br  0.46547061  0.64389637  0.58275824    -0.03000
Br1248     Br  0.41681761  0.58984608  0.64199393    -0.03900
Br1249     Br  0.33691698  0.62500041  0.55940641     0.00100
C1250       C  0.60294873  0.87819295  0.87877474     0.01500
C1251       C  0.61404404  0.88782199  0.90264272     0.04300
C1252       C  0.60242481  0.90456803  0.91649600    -0.11800
C1253       C  0.57965699  0.91193261  0.90658784     0.23600
C1254       C  0.56791078  0.90160036  0.88291555    -0.12300
C1255       C  0.57955440  0.88477596  0.86903084     0.05000
C1256       C  0.56924684  0.93153055  0.92101485     0.27400
C1257       C  0.54419127  0.91642427  0.93787482    -0.13000
C1258       C  0.53753286  0.93526362  0.95397970     0.05500
C1259       C  0.55601940  0.96934047  0.95338111    -0.09000
C1260       C  0.57995148  0.98442560  0.93568415     0.06300
C1261       C  0.58646919  0.96558877  0.91950405    -0.13300
Br1262     Br  0.53644758  0.91121255  0.86945164    -0.05400
Br1263     Br  0.64527672  0.87796804  0.91636754     0.00200
Br1264     Br  0.50442043  0.91434342  0.97787698     0.00700
Br1265     Br  0.61975692  0.98635061  0.89571472    -0.03800
Br1266     Br  0.56471128  0.87210854  0.83627166     0.00800
Br1267     Br  0.61818834  0.91812358  0.94901096    -0.03000
Br1268     Br  0.51996488  0.86985413  0.93946206    -0.03900
Br1269     Br  0.60380228  0.03099917  0.93365559     0.00100
C1270       C  0.03095152  0.43964876  0.96721258     0.01500
C1271       C  0.06050522  0.44319568  0.97516756     0.04300
C1272       C  0.07806581  0.43378424  0.96014985    -0.11800
C1273       C  0.06615566  0.42059645  0.93705646     0.23600
C1274       C  0.03680421  0.41752275  0.92891986    -0.12300
C1275       C  0.01921659  0.42693378  0.94399219     0.05000
C1276       C  0.08368051  0.40837824  0.92200903     0.27400
C1277       C  0.10533999  0.42802767  0.90407705    -0.13000
C1278       C  0.12178812  0.41628241  0.88989791     0.05500
C1279       C  0.11741578  0.38497513  0.89405080    -0.09000
C1280       C  0.09630611  0.36575262  0.91258420     0.06300
C1281       C  0.07913030  0.37717401  0.92610439    -0.13300
Br1282     Br  0.02018568  0.39924078  0.89747269    -0.05400
Br1283     Br  0.07661126  0.46039626  0.00694079     0.00200
Br1284     Br  0.14858964  0.44259706  0.86382682     0.00700
Br1285     Br  0.04887847  0.34990478  0.95023886    -0.03800
Br1286     Br  0.97814182  0.42076887  0.93346547     0.00800
Br1287     Br  0.11810230  0.43801971  0.97143709    -0.03000
Br1288     Br  0.11213823  0.47105606  0.89893701    -0.03900
Br1289     Br  0.09181411  0.32418348  0.92052005     0.00100
C1290       C  0.63668975  0.88865793  0.37422494     0.01500
C1291       C  0.65052103  0.92065426  0.38345750     0.04300
C1292       C  0.63294885  0.92933984  0.39905534    -0.11800
C1293       C  0.60220172  0.90591643  0.40686190     0.23600
C1294       C  0.58926288  0.87355712  0.39927351    -0.12300
C1295       C  0.60596344  0.86498593  0.38260766     0.05000
C1296       C  0.58324161  0.91571325  0.42250322     0.27400
C1297       C  0.59004874  0.92106201  0.44738918    -0.13000
C1298       C  0.57437705  0.93340807  0.46174990     0.05500
C1299       C  0.55031474  0.93902213  0.45151274    -0.09000
C1300       C  0.54241976  0.93186962  0.42665118     0.06300
C1301       C  0.55940060  0.92111234  0.41220177    -0.13300
Br1302     Br  0.54821375  0.84111915  0.41162459    -0.05400
Br1303     Br  0.69427988  0.95283242  0.37601297     0.00200
Br1304     Br  0.58833653  0.94463950  0.49496362     0.00700
Br1305     Br  0.55065911  0.91445322  0.37792417    -0.03800
Br1306     Br  0.58502680  0.82115375  0.37039465     0.00800
Br1307     Br  0.65065077  0.97377108  0.40935587    -0.03000
Br1308     Br  0.62150540  0.91185327  0.46162113    -0.03900
Br1309     Br  0.50744348  0.93517183  0.41202187     0.00100
C1310       C  0.11379530  0.37465609  0.36480943     0.01500
C1311       C  0.11142316  0.40197645  0.35814835     0.04300
C1312       C  0.10248200  0.41782658  0.37533889    -0.11800
C1313       C  0.09538160  0.40617349  0.39922900     0.23600
C1314       C  0.09908572  0.37968820  0.40615556    -0.12300
C1315       C  0.10813261  0.36387898  0.38896297     0.05000
C1316       C  0.08093241  0.41968588  0.41618451     0.27400
C1317       C  0.10042079  0.44620315  0.43132025    -0.13000
C1318       C  0.08637632  0.45967958  0.44634479     0.05500
C1319       C  0.05274516  0.44662607  0.44639456    -0.09000
C1320       C  0.03332001  0.41995641  0.43136521     0.06300
C1321       C  0.04733205  0.40651071  0.41638735    -0.13300
Br1322     Br  0.09073969  0.36457022  0.43906145    -0.05400
Br1323     Br  0.11975263  0.41719681  0.32525147     0.00200
Br1324     Br  0.11333069  0.49728206  0.46574626     0.00700
Br1325     Br  0.02053445  0.37012943  0.39577855    -0.03800
Br1326     Br  0.11063629  0.32608489  0.39804604     0.00800
Br1327     Br  0.09905534  0.45506741  0.36611126    -0.03000
Br1328     Br  0.14636575  0.46435751  0.43098917    -0.03900
Br1329     Br  0.98734565  0.40150656  0.43149056     0.00100
C1330       C  0.73155719  0.10822170  0.10785828     0.01500
C1331       C  0.73416815  0.09683215  0.08489389     0.04300
C1332       C  0.70735754  0.08208642  0.06915749    -0.11800
C1333       C  0.67788765  0.07951177  0.07586408     0.23600
C1334       C  0.67535779  0.09145580  0.09855397    -0.12300
C1335       C  0.70201008  0.10571271  0.11447902     0.05000
C1336       C  0.64981347  0.06494069  0.05883652     0.27400
C1337       C  0.64495727  0.08466373  0.04223461    -0.13000
C1338       C  0.61882044  0.07085890  0.02582332     0.05500
C1339       C  0.59737178  0.03721831  0.02585722    -0.09000
C1340       C  0.60209709  0.01753628  0.04258216     0.06300
C1341       C  0.62812427  0.03134349  0.05905221    -0.13300
Br1342     Br  0.63513432  0.08813496  0.10772097    -0.05400
Br1343     Br  0.77517888  0.10409633  0.07396420     0.00200
Br1344     Br  0.61321222  0.09776073  0.00248847     0.00700
Br1345     Br  0.63443688  0.00425283  0.08178801    -0.03800
Br1346     Br  0.69774280  0.12136578  0.14556691     0.00800
Br1347     Br  0.71092134  0.06557366  0.03819805    -0.03000
Br1348     Br  0.67468438  0.13057473  0.04172232    -0.03900
Br1349     Br  0.57271382  0.97150035  0.04291236     0.00100
C1350       C  0.95676463  0.40279686  0.03521913     0.01500
C1351       C  0.97333257  0.39694197  0.05389513     0.04300
C1352       C  0.95689570  0.37000582  0.06911888    -0.11800
C1353       C  0.92364545  0.34906517  0.06605114     0.23600
C1354       C  0.90672404  0.35575123  0.04812819    -0.12300
C1355       C  0.92328156  0.38256792  0.03269695     0.05000
C1356       C  0.90698121  0.31955994  0.08126881     0.27400
C1357       C  0.90481767  0.29037667  0.07343401    -0.13000
C1358       C  0.89164061  0.26313665  0.08867084     0.05500
C1359       C  0.88003760  0.26477795  0.11167281    -0.09000
C1360       C  0.88171584  0.29381523  0.11934462     0.06300
C1361       C  0.89526666  0.32117683  0.10420392    -0.13300
Br1362     Br  0.86108648  0.32751301  0.04433917    -0.05400
Br1363     Br  0.01855434  0.42621355  0.05886982     0.00200
Br1364     Br  0.88911703  0.22338872  0.07789547     0.00700
Br1365     Br  0.89858299  0.36122674  0.11498570    -0.03800
Br1366     Br  0.90042931  0.39081043  0.00741802     0.00800
Br1367     Br  0.98004452  0.36106330  0.09377904    -0.03000
Br1368     Br  0.92032675  0.28798947  0.04185950    -0.03900
Br1369     Br  0.86711783  0.29663531  0.15115663     0.00100
C1370       C  0.70080316  0.92205715  0.29990907     0.01500
C1371       C  0.68561189  0.93824419  0.28951212     0.04300
C1372       C  0.70262800  0.96471180  0.27387715    -0.11800
C1373       C  0.73446870  0.97433493  0.26728116     0.23600
C1374       C  0.74916923  0.95722074  0.27659327    -0.12300
C1375       C  0.73287260  0.93197374  0.29343961     0.05000
C1376       C  0.75235116  0.00281260  0.25091951     0.27400
C1377       C  0.74429382  0.00035819  0.22619758    -0.13000
C1378       C  0.75742260  0.02820328  0.21144511     0.05500
C1379       C  0.78125373  0.05872699  0.22078671    -0.09000
C1380       C  0.79157791  0.06016760  0.24514163     0.06300
C1381       C  0.77610574  0.03282562  0.26029797    -0.13300
Br1382     Br  0.79177078  0.96849519  0.26619368    -0.05400
Br1383     Br  0.64094529  0.92379996  0.29587054     0.00200
Br1384     Br  0.74039386  0.02359492  0.17899588     0.00700
Br1385     Br  0.78685974  0.03670007  0.29429536    -0.03800
Br1386     Br  0.75585845  0.91332208  0.30915143     0.00800
Br1387     Br  0.68246004  0.98847077  0.26187851    -0.03000
Br1388     Br  0.71488449  0.95838433  0.21265236    -0.03900
Br1389     Br  0.82840855  0.09853930  0.25796182     0.00100
C1390       C  0.07339842  0.29749654  0.29738584     0.01500
C1391       C  0.04484944  0.27219784  0.30722635     0.04300
C1392       C  0.01746917  0.25455757  0.29245483    -0.11800
C1393       C  0.01867364  0.26137731  0.26755992     0.23600
C1394       C  0.04777613  0.28536346  0.25745245    -0.12300
C1395       C  0.07486949  0.30376847  0.27237045     0.05000
C1396       C  0.98881887  0.24514878  0.25242014     0.27400
C1397       C  0.97842190  0.21442031  0.24206351    -0.13000
C1398       C  0.95041929  0.19965614  0.22748174     0.05500
C1399       C  0.93230460  0.21523685  0.22350777    -0.09000
C1400       C  0.94238785  0.24562064  0.23429787     0.06300
C1401       C  0.97062121  0.26063201  0.24850761    -0.13300
Br1402     Br  0.05008481  0.29348473  0.22318119    -0.05400
Br1403     Br  0.04337230  0.26146086  0.34100920     0.00200
Br1404     Br  0.93651278  0.15783234  0.21321093     0.00700
Br1405     Br  0.98460244  0.30264087  0.26262758    -0.03800
Br1406     Br  0.11313249  0.33923259  0.25884267     0.00800
Br1407     Br  0.97784535  0.22178407  0.30644146    -0.03000
Br1408     Br  0.00259572  0.19264913  0.24798240    -0.03900
Br1409     Br  0.91773443  0.26697956  0.22926995     0.00100
C1410       C  0.77868750  0.21575799  0.21706402     0.01500
C1411       C  0.79850411  0.24795496  0.22479395     0.04300
C1412       C  0.78494763  0.26511100  0.23556444    -0.11800
C1413       C  0.75143598  0.25026731  0.23835795     0.23600
C1414       C  0.73172025  0.21758112  0.23165875    -0.12300
C1415       C  0.74533517  0.20037821  0.22096798     0.05000
C1416       C  0.73674171  0.27015191  0.24529330     0.27400
C1417       C  0.72927221  0.27238083  0.26956010    -0.13000
C1418       C  0.71465823  0.29082565  0.27558018     0.05500
C1419       C  0.70760553  0.30711425  0.25735034    -0.09000
C1420       C  0.71597175  0.30560858  0.23320722     0.06300
C1421       C  0.73028933  0.28702415  0.22719068    -0.13300
Br1422     Br  0.68593979  0.19696997  0.23622571    -0.05400
Br1423     Br  0.84399253  0.26930850  0.21903727     0.00200
Br1424     Br  0.70448041  0.29413434  0.30873006     0.00700
Br1425     Br  0.74040689  0.28393084  0.19393368    -0.03800
Br1426     Br  0.71831779  0.15607211  0.21096147     0.00800
Br1427     Br  0.81199089  0.30951284  0.24547089    -0.03000
Br1428     Br  0.73870056  0.24978732  0.29433091    -0.03900
Br1429     Br  0.70700440  0.32831563  0.20815347     0.00100
C1430       C  0.88932926  0.11518018  0.11682396     0.01500
C1431       C  0.92193132  0.12526168  0.12221733     0.04300
C1432       C  0.93701404  0.10982869  0.11113742    -0.11800
C1433       C  0.91989521  0.08440581  0.09467349     0.23600
C1434       C  0.88813940  0.07525211  0.08833050    -0.12300
C1435       C  0.87280140  0.09046661  0.09936172     0.05000
C1436       C  0.93462191  0.06558658  0.08574317     0.27400
C1437       C  0.95227340  0.07436839  0.06417945    -0.13000
C1438       C  0.96881127  0.05828859  0.05714309     0.05500
C1439       C  0.96829586  0.03390861  0.07196209    -0.09000
C1440       C  0.94988487  0.02468336  0.09334874     0.06300
C1441       C  0.93265155  0.04014620  0.09992837    -0.13300
Br1442     Br  0.86561398  0.04117925  0.06485377    -0.05400
Br1443     Br  0.94604750  0.15843119  0.14601494     0.00200
Br1444     Br  0.99219258  0.06970423  0.02724845     0.00700
Br1445     Br  0.90715785  0.02743094  0.12896358    -0.03800
Br1446     Br  0.82928382  0.07718157  0.08986862     0.00800
Br1447     Br  0.98100177  0.12246966  0.11912729    -0.03000
Br1448     Br  0.95449027  0.10912439  0.04483523    -0.03900
Br1449     Br  0.95006932  0.99285827  0.11496840     0.00100
loop_ 
_geom_bond_atom_site_label_1 
_geom_bond_atom_site_label_2 
_geom_bond_distance 
_geom_bond_site_symmetry_2 
_ccdc_geom_bond_type 
Zn1           O5   1.970       .  S
Zn1           O6   2.015       .  S
Zn1          O10   2.058       .  S
Zn1          O17   2.030       .  S
Zn2           O5   1.971       .  S
Zn2           O7   2.022       .  S
Zn2           O9   2.012       .  S
Zn2          O13   2.038       .  S
Zn3           O5   1.969       .  S
Zn3           O8   2.036       .  S
Zn3          O11   2.029       .  S
Zn3          O14   2.020       .  S
Zn4           O5   1.977       .  S
Zn4          O12   2.039       .  S
Zn4          O15   2.054       .  S
Zn4          O16   2.047       .  S
O6           C18   1.273       .  A
O7           C19   1.274       .  A
O8           C20   1.275       .  A
O9           C18   1.272       .  A
O10          C20   1.278       .  A
O11          C19   1.274       .  A
O12          C21   1.276       .  A
O13          C22   1.275       .  A
O14          C21   1.274       .  A
O15          C22   1.277       .  A
O16          C23   1.277       .  A
O17          C23   1.274       .  A
C18        C1430   1.488       .  S
C19        C1359   1.479       .  S
C20        C1330   1.493       .  S
C21        C1410   1.477       .  S
C22        C1399   1.487       .  S
C23        C1379   1.507       .  S
C24        C1310   1.482       .  S
C24          N25   1.360       .  A
C24          N29   1.357       .  A
N25          C26   1.364       .  A
C26         C253   1.483       .  S
C26          N27   1.364       .  A
N27          C28   1.364       .  A
C28        C1390   1.486       .  S
C28          N29   1.359       .  A
C30        C1290   1.497       .  S
C30          N31   1.361       .  A
C30          N35   1.357       .  A
N31          C32   1.363       .  A
C32         C162   1.484       .  S
C32          N33   1.366       .  A
N33          C34   1.364       .  A
C34        C1370   1.496       .  S
C34          N35   1.357       .  A
C36        C1270   1.482       .  S
C36          N37   1.356   1_456  A
C36          N41   1.363       .  A
N37          C38   1.357       .  A
C38        C1350   1.479       .  S
C38          N39   1.360       .  A
N39          C40   1.363   1_554  A
C40         C308   1.482       .  S
C40          N41   1.365   1_655  A
C42        C1259   1.484       .  S
C42          N43   1.358       .  A
C42          N47   1.357   1_565  A
N43          C44   1.363   1_565  A
C44         C314   1.485       .  S
C44          N45   1.366   1_556  A
N45          C46   1.366       .  A
C46        C1339   1.486       .  S
C46          N47   1.359   1_554  A
Zn48         O52   1.974       .  S
Zn48         O53   2.028       .  S
Zn48         O57   2.056       .  S
Zn48         O64   2.044       .  S
Zn49         O52   1.966       .  S
Zn49         O54   2.040       .  S
Zn49         O56   2.014       .  S
Zn49         O60   2.043       .  S
Zn50         O52   1.963       .  S
Zn50         O55   2.032       .  S
Zn50         O58   2.034       .  S
Zn50         O61   2.019       .  S
Zn51         O52   1.964       .  S
Zn51         O59   2.006       .  S
Zn51         O62   2.027       .  S
Zn51         O63   2.040       .  S
O53          C65   1.275       .  A
O54          C66   1.276       .  A
O55          C67   1.274       .  A
O56          C65   1.275       .  A
O57          C67   1.277       .  A
O58          C66   1.276       .  A
O59          C68   1.272       .  A
O60          C69   1.275       .  A
O61          C68   1.274       .  A
O62          C69   1.273       .  A
O63          C70   1.276       .  A
O64          C70   1.276       .  A
C65        C1230   1.471       .  S
C66        C1199   1.489       .  S
C67        C1170   1.497       .  S
C68        C1210   1.488       .  S
C69        C1150   1.501       .  S
C70        C1139   1.485       .  S
Zn71         O75   1.969       .  S
Zn71         O76   2.042       .  S
Zn71         O80   2.011       .  S
Zn71         O87   2.052       .  S
Zn72         O75   1.966       .  S
Zn72         O77   2.027       .  S
Zn72         O79   2.037       .  S
Zn72         O83   2.015       .  S
Zn73         O75   1.974       .  S
Zn73         O78   2.023       .  S
Zn73         O81   2.040       .  S
Zn73         O84   2.042       .  S
Zn74         O75   1.961       .  S
Zn74         O82   2.028       .  S
Zn74         O85   2.001       .  S
Zn74         O86   2.014       .  S
O76          C88   1.276       .  A
O77          C89   1.273       .  A
O78          C90   1.274       .  A
O79          C88   1.276       .  A
O80          C90   1.274       .  A
O81          C89   1.275       .  A
O82          C91   1.274       .  A
O83          C92   1.273       .  A
O84          C91   1.276       .  A
O85          C92   1.269       .  A
O86          C93   1.272       .  A
O87          C93   1.276       .  A
C88        C1090   1.488       .  S
C89        C1059   1.482       .  S
C90        C1110   1.469       .  S
C91        C1070   1.483       .  S
C92        C1030   1.496       .  S
C93        C1250   1.482       .  S
C94        C1050   1.486       .  S
C94          N95   1.356       .  A
C94          N99   1.362       .  A
N95          C96   1.356       .  A
C96        C1179   1.485       .  S
C96          N97   1.365       .  A
N97          C98   1.367       .  A
C98         C296   1.488       .  S
C98          N99   1.366       .  A
C100       C1019   1.479       .  S
C100        N101   1.355       .  A
C100        N105   1.360       .  A
N101        C102   1.356       .  A
C102       C1079   1.488       .  S
C102        N103   1.364       .  A
N103        C104   1.367       .  A
C104        C224   1.484       .  S
C104        N105   1.364       .  A
C106        C990   1.483       .  S
C106        N107   1.361       .  A
C106        N111   1.358   1_554  A
N107        C108   1.363   1_554  A
C108        C267   1.484       .  S
C108        N109   1.364       .  A
N109        C110   1.363       .  A
C110       C1099   1.486       .  S
C110        N111   1.358       .  A
Zn112       O116   1.975       .  S
Zn112       O117   2.032       .  S
Zn112       O121   2.038       .  S
Zn112       O128   2.026   1_455  S
Zn113       O116   1.969       .  S
Zn113       O118   2.013       .  S
Zn113       O120   2.045       .  S
Zn113       O124   2.032   1_455  S
Zn114       O116   1.972       .  S
Zn114       O119   2.048       .  S
Zn114       O122   2.029       .  S
Zn114       O125   2.051       .  S
Zn115       O116   1.970   1_655  S
Zn115       O123   2.033       .  S
Zn115       O126   2.046       .  S
Zn115       O127   2.012       .  S
O117        C129   1.275       .  A
O118        C130   1.272       .  A
O119        C131   1.277       .  A
O120        C129   1.276       .  A
O121        C131   1.275       .  A
O122        C130   1.276       .  A
O123        C132   1.274       .  A
O124        C133   1.275       .  A
O125        C132   1.277   1_455  A
O126        C133   1.276       .  A
O127        C134   1.274       .  A
O128        C134   1.274       .  A
C129       C1319   1.486       .  S
C130        C899   1.494       .  S
C131        C910   1.497       .  S
C132        C959   1.486       .  S
C133        C930   1.493       .  S
C134        C979   1.470       .  S
Zn135       O139   1.969       .  S
Zn135       O140   2.028       .  S
Zn135       O144   2.023       .  S
Zn135       O151   2.040       .  S
Zn136       O139   1.967       .  S
Zn136       O141   2.036       .  S
Zn136       O143   2.033       .  S
Zn136       O147   2.016       .  S
Zn137       O139   1.967       .  S
Zn137       O142   2.011       .  S
Zn137       O145   2.016       .  S
Zn137       O148   2.008       .  S
Zn138       O139   1.974       .  S
Zn138       O146   2.038       .  S
Zn138       O149   2.040       .  S
Zn138       O150   2.045       .  S
O140        C152   1.274       .  A
O141        C153   1.274       .  A
O142        C154   1.272       .  A
O143        C152   1.275       .  A
O144        C154   1.274       .  A
O145        C153   1.272       .  A
O146        C155   1.275       .  A
O147        C156   1.274       .  A
O148        C155   1.271       .  A
O149        C156   1.276       .  A
O150        C157   1.277       .  A
O151        C157   1.275       .  A
C152        C839   1.478       .  S
C153        C999   1.481       .  S
C154        C799   1.472       .  S
C155        C819   1.474       .  S
C156        C870   1.490       .  S
C157        C859   1.485       .  S
C158        C830   1.490       .  S
C158        N159   1.358       .  A
C158        N163   1.363       .  A
N159        C160   1.355       .  A
C160       C1190   1.483       .  S
C160        N161   1.362       .  A
N161        C162   1.365       .  A
C162        N163   1.363       .  A
C164        C919   1.488       .  S
C164        N165   1.364       .  A
C164        N169   1.357       .  A
N165        C166   1.366       .  A
C166        C259   1.489       .  S
C166        N167   1.366       .  A
N167        C168   1.364       .  A
C168        C850   1.497       .  S
C168        N169   1.359       .  A
Zn170       O174   1.960   1_545  S
Zn170       O175   2.019       .  S
Zn170       O179   2.028       .  S
Zn170       O186   2.039       .  S
Zn171       O174   1.967       .  S
Zn171       O176   2.029       .  S
Zn171       O178   2.007   1_565  S
Zn171       O182   2.023       .  S
Zn172       O174   1.964       .  S
Zn172       O177   2.043       .  S
Zn172       O180   2.030       .  S
Zn172       O183   2.031       .  S
Zn173       O174   1.964       .  S
Zn173       O181   2.020       .  S
Zn173       O184   2.039       .  S
Zn173       O185   2.045       .  S
O175        C187   1.274       .  A
O176        C188   1.274       .  A
O177        C189   1.276   1_565  A
O178        C187   1.271       .  A
O179        C189   1.275       .  A
O180        C188   1.273       .  A
O181        C190   1.275       .  A
O182        C191   1.274       .  A
O183        C190   1.277       .  A
O184        C191   1.277       .  A
O185        C192   1.276   1_565  A
O186        C192   1.276       .  A
C187        C710   1.468       .  S
C188       C1299   1.500       .  S
C189       C1010   1.499       .  S
C190        C779   1.488       .  S
C191        C750   1.480       .  S
C192        C739   1.496       .  S
Zn193       O197   1.978       .  S
Zn193       O198   2.056       .  S
Zn193       O202   2.049       .  S
Zn193       O209   2.031       .  S
Zn194       O197   1.966       .  S
Zn194       O199   2.017       .  S
Zn194       O201   2.033       .  S
Zn194       O205   2.018       .  S
Zn195       O197   1.970       .  S
Zn195       O200   2.017       .  S
Zn195       O203   2.006       .  S
Zn195       O206   2.032       .  S
Zn196       O197   1.976       .  S
Zn196       O204   2.064       .  S
Zn196       O207   2.062       .  S
Zn196       O208   2.019       .  S
O198        C210   1.277       .  A
O199        C211   1.275       .  A
O200        C212   1.272       .  A
O201        C210   1.272       .  A
O202        C212   1.277       .  A
O203        C211   1.273       .  A
O204        C213   1.278       .  A
O205        C214   1.274       .  A
O206        C213   1.273       .  A
O207        C214   1.278       .  A
O208        C215   1.276       .  A
O209        C215   1.277       .  A
C210        C630   1.509       .  S
C211        C619   1.472       .  S
C212        C650   1.487       .  S
C213        C670   1.489       .  S
C214       C1279   1.496       .  S
C215        C699   1.474       .  S
C216        C659   1.487       .  S
C216        N217   1.363       .  A
C216        N221   1.355       .  A
N217        C218   1.368       .  A
C218        C300   1.491       .  S
C218        N219   1.367       .  A
N219        C220   1.366       .  A
C220       C1130   1.496       .  S
C220        N221   1.356       .  A
C222        C939   1.483       .  S
C222        N223   1.361       .  A
C222        N227   1.357       .  A
N223        C224   1.365       .  A
C224        N225   1.364       .  A
N225        C226   1.363       .  A
C226        C639   1.483       .  S
C226        N227   1.358       .  A
Zn228       O232   1.967       .  S
Zn228       O233   2.026       .  S
Zn228       O237   2.026       .  S
Zn228       O244   2.023       .  S
Zn229       O232   1.976       .  S
Zn229       O234   2.032       .  S
Zn229       O236   2.046       .  S
Zn229       O240   2.032       .  S
Zn230       O232   1.963       .  S
Zn230       O235   2.007       .  S
Zn230       O238   2.029       .  S
Zn230       O241   2.011       .  S
Zn231       O232   1.971       .  S
Zn231       O239   2.064       .  S
Zn231       O242   2.028       .  S
Zn231       O243   2.051       .  S
O233        C245   1.273       .  A
O234        C246   1.275       .  A
O235        C247   1.271       .  A
O236        C245   1.276       .  A
O237        C247   1.274       .  A
O238        C246   1.274       .  A
O239        C248   1.278       .  A
O240        C249   1.274       .  A
O241        C248   1.271       .  A
O242        C249   1.276       .  A
O243        C250   1.278       .  A
O244        C250   1.275       .  A
C245        C579   1.482       .  S
C246        C550   1.478       .  S
C247        C499   1.492       .  S
C248        C519   1.505       .  S
C249        C599   1.477       .  S
C250        C530   1.483       .  S
C251        C570   1.486       .  S
C251        N252   1.363       .  A
C251        N256   1.357       .  A
N252        C253   1.365       .  A
C253        N254   1.363       .  A
N254        C255   1.361       .  A
C255       C1159   1.502       .  S
C255        N256   1.357       .  A
C257        C759   1.488       .  S
C257        N258   1.365       .  A
C257        N262   1.354       .  A
N258        C259   1.367       .  A
C259        N260   1.366       .  A
N260        C261   1.363       .  A
C261        C559   1.485       .  S
C261        N262   1.353       .  A
C263        C539   1.489       .  S
C263        N264   1.357       .  A
C263        N268   1.362       .  A
N264        C265   1.357   1_554  A
C265        C679   1.487       .  S
C265        N266   1.363       .  A
N266        C267   1.365       .  A
C267        N268   1.364   1_556  A
Zn269       O273   1.976       .  S
Zn269       O274   2.039       .  S
Zn269       O278   2.039       .  S
Zn269       O285   2.046       .  S
Zn270       O273   1.972       .  S
Zn270       O275   2.028       .  S
Zn270       O277   2.039       .  S
Zn270       O281   2.041       .  S
Zn271       O273   1.965       .  S
Zn271       O276   2.014       .  S
Zn271       O279   2.040       .  S
Zn271       O282   2.032       .  S
Zn272       O273   1.961       .  S
Zn272       O280   2.034       .  S
Zn272       O283   2.007       .  S
Zn272       O284   2.021       .  S
O274        C286   1.276       .  A
O275        C287   1.275       .  A
O276        C288   1.274       .  A
O277        C286   1.276       .  A
O278        C288   1.275       .  A
O279        C287   1.276       .  A
O280        C289   1.274       .  A
O281        C290   1.276       .  A
O282        C289   1.274       .  A
O283        C290   1.272       .  A
O284        C291   1.274       .  A
O285        C291   1.277       .  A
C286        C439   1.484       .  S
C287        C390   1.487       .  S
C288        C470   1.479       .  S
C289        C370   1.503       .  S
C290        C450   1.491       .  S
C291        C410   1.487       .  S
C292        C950   1.493       .  S
C292        N293   1.358       .  A
C292        N297   1.365       .  A
N293        C294   1.356       .  A
C294        C399   1.484       .  S
C294        N295   1.361       .  A
N295        C296   1.365       .  A
C296        N297   1.367       .  A
C298        C730   1.485       .  S
C298        N299   1.365       .  A
C298        N303   1.354       .  A
N299        C300   1.369       .  A
C300        N301   1.366       .  A
N301        C302   1.363       .  A
C302        C379   1.494       .  S
C302        N303   1.355       .  A
C304        C810   1.483       .  S
C304        N305   1.353   1_554  A
C304        N309   1.361       .  A
N305        C306   1.354   1_655  A
C306        C430   1.491       .  S
C306        N307   1.364       .  A
N307        C308   1.366   1_455  A
C308        N309   1.365   1_556  A
C310        C510   1.502       .  S
C310        N311   1.359   1_554  A
C310        N315   1.368       .  A
N311        C312   1.355   1_545  A
C312        C419   1.479       .  S
C312        N313   1.356       .  A
N313        C314   1.362   1_565  A
C314        N315   1.368   1_556  A
C316       C1439   1.481       .  S
C316        C317   1.403   1_655  A
C316        C321   1.401   1_545  A
C317        C318   1.402       .  A
C317        H322   1.082       .  S
C318        C490   1.478       .  S
C318        C319   1.402   1_545  A
C319        C320   1.402   1_455  A
C319        H323   1.087       .  S
C320        C790   1.478       .  S
C320        C321   1.401       .  A
C321        H324   1.082       .  S
C325       C1219   1.478       .  S
C325        C326   1.404       .  A
C325        C330   1.401       .  A
C326        C327   1.402       .  A
C326        H331   1.087       .  S
C327        C970   1.476       .  S
C327        C328   1.402       .  A
C328        C329   1.401       .  A
C328        H332   1.080       .  S
C329        C719   1.472       .  S
C329        C330   1.399       .  A
C330        H333   1.084       .  S
C334       C1239   1.481       .  S
C334        C335   1.401       .  A
C334        C339   1.403       .  A
C335        C336   1.401       .  A
C335        H340   1.085       .  S
C336        C890   1.482       .  S
C336        C337   1.403       .  A
C337        C338   1.407       .  A
C337        H341   1.085       .  S
C338        C770   1.492       .  S
C338        C339   1.406       .  A
C339        H342   1.083       .  S
C343        C479   1.487       .  S
C343        C344   1.406   1_455  A
C343        C348   1.404   1_565  A
C344        C345   1.405       .  A
C344        H349   1.084       .  S
C345       C1039   1.475       .  S
C345        C346   1.397   1_565  A
C346        C347   1.401   1_655  A
C346        H350   1.084       .  S
C347        C610   1.484       .  S
C347        C348   1.404       .  A
C348        H351   1.084       .  S
C352        C459   1.488       .  S
C352        C353   1.407       .  A
C352        C357   1.404       .  A
C353        C354   1.405       .  A
C353        H358   1.084       .  S
C354       C1119   1.480       .  S
C354        C355   1.401       .  A
C355        C356   1.401       .  A
C355        H359   1.084       .  S
C356        C690   1.481       .  S
C356        C357   1.402       .  A
C357        H360   1.085       .  S
C361       C1419   1.481       .  S
C361        C362   1.404       .  A
C361        C366   1.402       .  A
C362        C363   1.406       .  A
C362        H367   1.084       .  S
C363        C879   1.490       .  S
C363        C364   1.408       .  A
C364        C365   1.406       .  A
C364        H368   1.082       .  S
C365        C590   1.482       .  S
C365        C366   1.401       .  A
C366        H369   1.085       .  S
C370        C371   1.422       .  A
C370        C375   1.422       .  A
C371        C372   1.411       .  A
C371       Br383   1.935       .  S
C372        C373   1.408       .  A
C372       Br387   1.933       .  S
C373        C376   1.496   1_565  S
C373        C374   1.409       .  A
C374        C375   1.413       .  A
C374       Br382   1.932   1_565  S
C375       Br386   1.934       .  S
C376        C377   1.409       .  A
C376        C381   1.411       .  A
C377        C378   1.409       .  A
C377       Br388   1.932   1_545  S
C378        C379   1.417       .  A
C378       Br384   1.934       .  S
C379        C380   1.416       .  A
C380        C381   1.414       .  A
C380       Br389   1.930       .  S
C381       Br385   1.930       .  S
C390        C391   1.413       .  A
C390        C395   1.413       .  A
C391        C392   1.413       .  A
C391       Br403   1.930       .  S
C392        C393   1.411       .  A
C392       Br407   1.928   1_455  S
C393        C396   1.494   1_455  S
C393        C394   1.410       .  A
C394        C395   1.410       .  A
C394       Br402   1.930       .  S
C395       Br406   1.931       .  S
C396        C397   1.410       .  A
C396        C401   1.411       .  A
C397        C398   1.410       .  A
C397       Br408   1.929       .  S
C398        C399   1.410       .  A
C398       Br404   1.929       .  S
C399        C400   1.411       .  A
C400        C401   1.413       .  A
C400       Br409   1.928       .  S
C401       Br405   1.928   1_655  S
C410        C411   1.413       .  A
C410        C415   1.414       .  A
C411        C412   1.410       .  A
C411       Br423   1.931       .  S
C412        C413   1.410       .  A
C412       Br427   1.930       .  S
C413        C416   1.492       .  S
C413        C414   1.409       .  A
C414        C415   1.411       .  A
C414       Br422   1.929       .  S
C415       Br426   1.931       .  S
C416        C417   1.411       .  A
C416        C421   1.411       .  A
C417        C418   1.410       .  A
C417       Br428   1.928       .  S
C418        C419   1.409       .  A
C418       Br424   1.928   1_565  S
C419        C420   1.408       .  A
C420        C421   1.410       .  A
C420       Br429   1.928       .  S
C421       Br425   1.928       .  S
C430        C431   1.415       .  A
C430        C435   1.418       .  A
C431        C432   1.414       .  A
C431       Br443   1.930       .  S
C432        C433   1.411       .  A
C432       Br447   1.929       .  S
C433        C436   1.493       .  S
C433        C434   1.408       .  A
C434        C435   1.408       .  A
C434       Br442   1.932       .  S
C435       Br446   1.935   1_556  S
C436        C437   1.410       .  A
C436        C441   1.411       .  A
C437        C438   1.410       .  A
C437       Br448   1.930       .  S
C438        C439   1.410       .  A
C438       Br444   1.929       .  S
C439        C440   1.412       .  A
C440        C441   1.412       .  A
C440       Br449   1.930       .  S
C441       Br445   1.929       .  S
C450        C451   1.419       .  A
C450        C455   1.417       .  A
C451        C452   1.408       .  A
C451       Br463   1.934       .  S
C452        C453   1.405       .  A
C452       Br467   1.930       .  S
C453        C456   1.486       .  S
C453        C454   1.409       .  A
C454        C455   1.410       .  A
C454       Br462   1.932       .  S
C455       Br466   1.932       .  S
C456        C457   1.408       .  A
C456        C461   1.407       .  A
C457        C458   1.409       .  A
C457       Br468   1.928       .  S
C458        C459   1.413       .  A
C458       Br464   1.928       .  S
C459        C460   1.417       .  A
C460        C461   1.406       .  A
C460       Br469   1.932       .  S
C461       Br465   1.932       .  S
C470        C471   1.411       .  A
C470        C475   1.410       .  A
C471        C472   1.410       .  A
C471       Br483   1.929       .  S
C472        C473   1.409       .  A
C472       Br487   1.928       .  S
C473        C476   1.487       .  S
C473        C474   1.409       .  A
C474        C475   1.407       .  A
C474       Br482   1.929       .  S
C475       Br486   1.930       .  S
C476        C477   1.408       .  A
C476        C481   1.409       .  A
C477        C478   1.405       .  A
C477       Br488   1.934       .  S
C478        C479   1.414       .  A
C478       Br484   1.929   1_455  S
C479        C480   1.412       .  A
C480        C481   1.411       .  A
C480       Br489   1.928       .  S
C481       Br485   1.927       .  S
C490        C491   1.409       .  A
C490        C495   1.411       .  A
C491        C492   1.408       .  A
C491       Br503   1.927       .  S
C492        C493   1.410       .  A
C492       Br507   1.928       .  S
C493        C496   1.483       .  S
C493        C494   1.409       .  A
C494        C495   1.404       .  A
C494       Br502   1.932       .  S
C495       Br506   1.932       .  S
C496        C497   1.406       .  A
C496        C501   1.406       .  A
C497        C498   1.407       .  A
C497       Br508   1.934       .  S
C498        C499   1.421       .  A
C498       Br504   1.936       .  S
C499        C500   1.419       .  A
C500        C501   1.409       .  A
C500       Br509   1.932       .  S
C501       Br505   1.931       .  S
C510        C511   1.419       .  A
C510        C515   1.421       .  A
C511        C512   1.416       .  A
C511       Br523   1.930       .  S
C512        C513   1.411       .  A
C512       Br527   1.930       .  S
C513        C516   1.499       .  S
C513        C514   1.408       .  A
C514        C515   1.411       .  A
C514       Br522   1.933       .  S
C515       Br526   1.934   1_554  S
C516        C517   1.408       .  A
C516        C521   1.410       .  A
C517        C518   1.413       .  A
C517       Br528   1.932       .  S
C518        C519   1.424       .  A
C518       Br524   1.936       .  S
C519        C520   1.420       .  A
C520        C521   1.414       .  A
C520       Br529   1.932       .  S
C521       Br525   1.931       .  S
C530        C531   1.410       .  A
C530        C535   1.411       .  A
C531        C532   1.409       .  A
C531       Br543   1.929       .  S
C532        C533   1.411       .  A
C532       Br547   1.930       .  S
C533        C536   1.492       .  S
C533        C534   1.410       .  A
C534        C535   1.412       .  A
C534       Br542   1.928       .  S
C535       Br546   1.927       .  S
C536        C537   1.410       .  A
C536        C541   1.409       .  A
C537        C538   1.412       .  A
C537       Br548   1.929       .  S
C538        C539   1.414       .  A
C538       Br544   1.929       .  S
C539        C540   1.415       .  A
C540        C541   1.410       .  A
C540       Br549   1.931       .  S
C541       Br545   1.929       .  S
C550        C551   1.409       .  A
C550        C555   1.409       .  A
C551        C552   1.409       .  A
C551       Br563   1.929       .  S
C552        C553   1.411       .  A
C552       Br567   1.929       .  S
C553        C556   1.491   1_545  S
C553        C554   1.411       .  A
C554        C555   1.410       .  A
C554       Br562   1.928       .  S
C555       Br566   1.928       .  S
C556        C557   1.410       .  A
C556        C561   1.409       .  A
C557        C558   1.412       .  A
C557       Br568   1.928       .  S
C558        C559   1.412       .  A
C558       Br564   1.929       .  S
C559        C560   1.414       .  A
C560        C561   1.409       .  A
C560       Br569   1.932       .  S
C561       Br565   1.931   1_565  S
C570        C571   1.412       .  A
C570        C575   1.412       .  A
C571        C572   1.409       .  A
C571       Br583   1.930       .  S
C572        C573   1.409       .  A
C572       Br587   1.929       .  S
C573        C576   1.494       .  S
C573        C574   1.411       .  A
C574        C575   1.413       .  A
C574       Br582   1.928       .  S
C575       Br586   1.929       .  S
C576        C577   1.411       .  A
C576        C581   1.411       .  A
C577        C578   1.411       .  A
C577       Br588   1.929       .  S
C578        C579   1.410       .  A
C578       Br584   1.928       .  S
C579        C580   1.410       .  A
C580        C581   1.412       .  A
C580       Br589   1.929       .  S
C581       Br585   1.928       .  S
C590        C591   1.409       .  A
C590        C595   1.410       .  A
C591        C592   1.412       .  A
C591       Br603   1.927       .  S
C592        C593   1.410       .  A
C592       Br607   1.926       .  S
C593        C596   1.486       .  S
C593        C594   1.409       .  A
C594        C595   1.404       .  A
C594       Br602   1.933       .  S
C595       Br606   1.929       .  S
C596        C597   1.410       .  A
C596        C601   1.409       .  A
C597        C598   1.410       .  A
C597       Br608   1.928       .  S
C598        C599   1.409       .  A
C598       Br604   1.926       .  S
C599        C600   1.407       .  A
C600        C601   1.406       .  A
C600       Br609   1.926       .  S
C601       Br605   1.929       .  S
C610        C611   1.414       .  A
C610        C615   1.416       .  A
C611        C612   1.406       .  A
C611       Br623   1.929       .  S
C612        C613   1.407       .  A
C612       Br627   1.931       .  S
C613        C616   1.480       .  S
C613        C614   1.408       .  A
C614        C615   1.404       .  A
C614       Br622   1.933       .  S
C615       Br626   1.935       .  S
C616        C617   1.408       .  A
C616        C621   1.409       .  A
C617        C618   1.401       .  A
C617       Br628   1.933       .  S
C618        C619   1.409       .  A
C618       Br624   1.928       .  S
C619        C620   1.410       .  A
C620        C621   1.408       .  A
C620       Br629   1.929       .  S
C621       Br625   1.928       .  S
C630        C631   1.422       .  A
C630        C635   1.426       .  A
C631        C632   1.413       .  A
C631       Br643   1.931       .  S
C632        C633   1.407       .  A
C632       Br647   1.932       .  S
C633        C636   1.496   1_455  S
C633        C634   1.406       .  A
C634        C635   1.414       .  A
C634       Br642   1.932   1_455  S
C635       Br646   1.929       .  S
C636        C637   1.411       .  A
C636        C641   1.411       .  A
C637        C638   1.411       .  A
C637       Br648   1.929       .  S
C638        C639   1.410       .  A
C638       Br644   1.929       .  S
C639        C640   1.410       .  A
C640        C641   1.412       .  A
C640       Br649   1.929       .  S
C641       Br645   1.928       .  S
C650        C651   1.411       .  A
C650        C655   1.414       .  A
C651        C652   1.412       .  A
C651       Br663   1.930       .  S
C652        C653   1.412       .  A
C652       Br667   1.930       .  S
C653        C656   1.496       .  S
C653        C654   1.410       .  A
C654        C655   1.412       .  A
C654       Br662   1.929       .  S
C655       Br666   1.932       .  S
C656        C657   1.410       .  A
C656        C661   1.412       .  A
C657        C658   1.410       .  A
C657       Br668   1.929       .  S
C658        C659   1.412       .  A
C658       Br664   1.929       .  S
C659        C660   1.412       .  A
C660        C661   1.414       .  A
C660       Br669   1.928       .  S
C661       Br665   1.929       .  S
C670        C671   1.412       .  A
C670        C675   1.409       .  A
C671        C672   1.415       .  A
C671       Br683   1.928       .  S
C672        C673   1.412       .  A
C672       Br687   1.929       .  S
C673        C676   1.500       .  S
C673        C674   1.413       .  A
C674        C675   1.412       .  A
C674       Br682   1.929       .  S
C675       Br686   1.928       .  S
C676        C677   1.412       .  A
C676        C681   1.413       .  A
C677        C678   1.412       .  A
C677       Br688   1.929       .  S
C678        C679   1.412       .  A
C678       Br684   1.931       .  S
C679        C680   1.411       .  A
C680        C681   1.413       .  A
C680       Br689   1.929       .  S
C681       Br685   1.929       .  S
C690        C691   1.410       .  A
C690        C695   1.414       .  A
C691        C692   1.408       .  A
C691       Br703   1.926       .  S
C692        C693   1.408       .  A
C692       Br707   1.928       .  S
C693        C696   1.481       .  S
C693        C694   1.408       .  A
C694        C695   1.405       .  A
C694       Br702   1.932       .  S
C695       Br706   1.933       .  S
C696        C697   1.408       .  A
C696        C701   1.409       .  A
C697        C698   1.407       .  A
C697       Br708   1.930       .  S
C698        C699   1.410       .  A
C698       Br704   1.927       .  S
C699        C700   1.409       .  A
C700        C701   1.406       .  A
C700       Br709   1.930       .  S
C701       Br705   1.930       .  S
C710        C711   1.408       .  A
C710        C715   1.407       .  A
C711        C712   1.406       .  A
C711       Br723   1.929       .  S
C712        C713   1.408       .  A
C712       Br727   1.929       .  S
C713        C716   1.478       .  S
C713        C714   1.408       .  A
C714        C715   1.405       .  A
C714       Br722   1.929       .  S
C715       Br726   1.927       .  S
C716        C717   1.409       .  A
C716        C721   1.409       .  A
C717        C718   1.402       .  A
C717       Br728   1.933       .  S
C718        C719   1.408       .  A
C718       Br724   1.930       .  S
C719        C720   1.409       .  A
C720        C721   1.408       .  A
C720       Br729   1.929       .  S
C721       Br725   1.927       .  S
C730        C731   1.410       .  A
C730        C735   1.411       .  A
C731        C732   1.412       .  A
C731       Br743   1.928       .  S
C732        C733   1.411       .  A
C732       Br747   1.928       .  S
C733        C736   1.498       .  S
C733        C734   1.412       .  A
C734        C735   1.413       .  A
C734       Br742   1.928       .  S
C735       Br746   1.928       .  S
C736        C737   1.409       .  A
C736        C741   1.411       .  A
C737        C738   1.413       .  A
C737       Br748   1.929       .  S
C738        C739   1.416       .  A
C738       Br744   1.930       .  S
C739        C740   1.416       .  A
C740        C741   1.414       .  A
C740       Br749   1.931   1_545  S
C741       Br745   1.930       .  S
C750        C751   1.409       .  A
C750        C755   1.410       .  A
C751        C752   1.410       .  A
C751       Br763   1.927       .  S
C752        C753   1.411       .  A
C752       Br767   1.928       .  S
C753        C756   1.491       .  S
C753        C754   1.411       .  A
C754        C755   1.409       .  A
C754       Br762   1.930       .  S
C755       Br766   1.929   1_565  S
C756        C757   1.408       .  A
C756        C761   1.410       .  A
C757        C758   1.409       .  A
C757       Br768   1.931       .  S
C758        C759   1.417       .  A
C758       Br764   1.933       .  S
C759        C760   1.413       .  A
C760        C761   1.412       .  A
C760       Br769   1.929       .  S
C761       Br765   1.930       .  S
C770        C771   1.420       .  A
C770        C775   1.415       .  A
C771        C772   1.406       .  A
C771       Br783   1.933       .  S
C772        C773   1.406       .  A
C772       Br787   1.934       .  S
C773        C776   1.485       .  S
C773        C774   1.407       .  A
C774        C775   1.410       .  A
C774       Br782   1.928       .  S
C775       Br786   1.930       .  S
C776        C777   1.406       .  A
C776        C781   1.407       .  A
C777        C778   1.409       .  A
C777       Br788   1.929       .  S
C778        C779   1.416       .  A
C778       Br784   1.929       .  S
C779        C780   1.417       .  A
C780        C781   1.407       .  A
C780       Br789   1.932       .  S
C781       Br785   1.933       .  S
C790        C791   1.413       .  A
C790        C795   1.410       .  A
C791        C792   1.402       .  A
C791       Br803   1.932   1_655  S
C792        C793   1.408       .  A
C792       Br807   1.934       .  S
C793        C796   1.480       .  S
C793        C794   1.409       .  A
C794        C795   1.409       .  A
C794       Br802   1.927       .  S
C795       Br806   1.929       .  S
C796        C797   1.408       .  A
C796        C801   1.410       .  A
C797        C798   1.406       .  A
C797       Br808   1.929       .  S
C798        C799   1.410       .  A
C798       Br804   1.928       .  S
C799        C800   1.408       .  A
C800        C801   1.406       .  A
C800       Br809   1.928       .  S
C801       Br805   1.930       .  S
C810        C811   1.412       .  A
C810        C815   1.412       .  A
C811        C812   1.408       .  A
C811       Br823   1.931   1_554  S
C812        C813   1.409       .  A
C812       Br827   1.930       .  S
C813        C816   1.489       .  S
C813        C814   1.410       .  A
C814        C815   1.411       .  A
C814       Br822   1.930       .  S
C815       Br826   1.929       .  S
C816        C817   1.412       .  A
C816        C821   1.410       .  A
C817        C818   1.409       .  A
C817       Br828   1.929       .  S
C818        C819   1.408       .  A
C818       Br824   1.928       .  S
C819        C820   1.409       .  A
C820        C821   1.408       .  A
C820       Br829   1.930       .  S
C821       Br825   1.929       .  S
C830        C831   1.417       .  A
C830        C835   1.415       .  A
C831        C832   1.409       .  A
C831       Br843   1.933       .  S
C832        C833   1.407       .  A
C832       Br847   1.931       .  S
C833        C836   1.489       .  S
C833        C834   1.409       .  A
C834        C835   1.411       .  A
C834       Br842   1.930       .  S
C835       Br846   1.929       .  S
C836        C837   1.410       .  A
C836        C841   1.410       .  A
C837        C838   1.408       .  A
C837       Br848   1.930       .  S
C838        C839   1.409       .  A
C838       Br844   1.928       .  S
C839        C840   1.410       .  A
C840        C841   1.410       .  A
C840       Br849   1.928       .  S
C841       Br845   1.928       .  S
C850        C851   1.417       .  A
C850        C855   1.416       .  A
C851        C852   1.410       .  A
C851       Br863   1.934       .  S
C852        C853   1.409       .  A
C852       Br867   1.932       .  S
C853        C856   1.498   1_455  S
C853        C854   1.411       .  A
C854        C855   1.416       .  A
C854       Br862   1.928       .  S
C855       Br866   1.930       .  S
C856        C857   1.412       .  A
C856        C861   1.412       .  A
C857        C858   1.413       .  A
C857       Br868   1.928   1_655  S
C858        C859   1.410       .  A
C858       Br864   1.929       .  S
C859        C860   1.410       .  A
C860        C861   1.412       .  A
C860       Br869   1.929       .  S
C861       Br865   1.929       .  S
C870        C871   1.416       .  A
C870        C875   1.417       .  A
C871        C872   1.410       .  A
C871       Br883   1.932       .  S
C872        C873   1.409       .  A
C872       Br887   1.932       .  S
C873        C876   1.489       .  S
C873        C874   1.407       .  A
C874        C875   1.409       .  A
C874       Br882   1.929       .  S
C875       Br886   1.930       .  S
C876        C877   1.408       .  A
C876        C881   1.410       .  A
C877        C878   1.406       .  A
C877       Br888   1.933       .  S
C878        C879   1.415       .  A
C878       Br884   1.929       .  S
C879        C880   1.414       .  A
C880        C881   1.412       .  A
C880       Br889   1.929       .  S
C881       Br885   1.928       .  S
C890        C891   1.413       .  A
C890        C895   1.411       .  A
C891        C892   1.404       .  A
C891       Br903   1.931       .  S
C892        C893   1.408       .  A
C892       Br907   1.933       .  S
C893        C896   1.483       .  S
C893        C894   1.409       .  A
C894        C895   1.409       .  A
C894       Br902   1.928       .  S
C895       Br906   1.927       .  S
C896        C897   1.405       .  A
C896        C901   1.405       .  A
C897        C898   1.408       .  A
C897       Br908   1.931       .  S
C898        C899   1.420       .  A
C898       Br904   1.933       .  S
C899        C900   1.423       .  A
C900        C901   1.409       .  A
C900       Br909   1.934       .  S
C901       Br905   1.933       .  S
C910        C911   1.417       .  A
C910        C915   1.416       .  A
C911        C912   1.413       .  A
C911       Br923   1.932   1_455  S
C912        C913   1.412       .  A
C912       Br927   1.931       .  S
C913        C916   1.501       .  S
C913        C914   1.411       .  A
C914        C915   1.414       .  A
C914       Br922   1.930       .  S
C915       Br926   1.931       .  S
C916        C917   1.413       .  A
C916        C921   1.413       .  A
C917        C918   1.414       .  A
C917       Br928   1.929       .  S
C918        C919   1.411       .  A
C918       Br924   1.929       .  S
C919        C920   1.411       .  A
C920        C921   1.413       .  A
C920       Br929   1.929       .  S
C921       Br925   1.930       .  S
C930        C931   1.416       .  A
C930        C935   1.415       .  A
C931        C932   1.415       .  A
C931       Br943   1.930       .  S
C932        C933   1.411       .  A
C932       Br947   1.928       .  S
C933        C936   1.496       .  S
C933        C934   1.409       .  A
C934        C935   1.410       .  A
C934       Br942   1.931       .  S
C935       Br946   1.932   1_655  S
C936        C937   1.412       .  A
C936        C941   1.411       .  A
C937        C938   1.413       .  A
C937       Br948   1.928       .  S
C938        C939   1.410       .  A
C938       Br944   1.928       .  S
C939        C940   1.409       .  A
C940        C941   1.411       .  A
C940       Br949   1.929       .  S
C941       Br945   1.929       .  S
C950        C951   1.415       .  A
C950        C955   1.414       .  A
C951        C952   1.411       .  A
C951       Br963   1.931       .  S
C952        C953   1.409       .  A
C952       Br967   1.930       .  S
C953        C956   1.497       .  S
C953        C954   1.411       .  A
C954        C955   1.414       .  A
C954       Br962   1.928       .  S
C955       Br966   1.929       .  S
C956        C957   1.411       .  A
C956        C961   1.412       .  A
C957        C958   1.412       .  A
C957       Br968   1.928       .  S
C958        C959   1.411       .  A
C958       Br964   1.928       .  S
C959        C960   1.410       .  A
C960        C961   1.413       .  A
C960       Br969   1.929       .  S
C961       Br965   1.929       .  S
C970        C971   1.409       .  A
C970        C975   1.409       .  A
C971        C972   1.410       .  A
C971       Br983   1.928       .  S
C972        C973   1.409       .  A
C972       Br987   1.926       .  S
C973        C976   1.480       .  S
C973        C974   1.408       .  A
C974        C975   1.402       .  A
C974       Br982   1.934       .  S
C975       Br986   1.927       .  S
C976        C977   1.408       .  A
C976        C981   1.409       .  A
C977        C978   1.406       .  A
C977       Br988   1.929       .  S
C978        C979   1.408       .  A
C978       Br984   1.927       .  S
C979        C980   1.408       .  A
C980        C981   1.406       .  A
C980       Br989   1.928       .  S
C981       Br985   1.929       .  S
C990        C991   1.411       .  A
C990        C995   1.411       .  A
C991        C992   1.411       .  A
C991      Br1003   1.927   1_554  S
C992        C993   1.410       .  A
C992      Br1007   1.929       .  S
C993        C996   1.490       .  S
C993        C994   1.410       .  A
C994        C995   1.409       .  A
C994      Br1002   1.929       .  S
C995      Br1006   1.929       .  S
C996        C997   1.410       .  A
C996       C1001   1.410       .  A
C997        C998   1.411       .  A
C997      Br1008   1.928       .  S
C998        C999   1.412       .  A
C998      Br1004   1.930       .  S
C999       C1000   1.410       .  A
C1000      C1001   1.409       .  A
C1000     Br1009   1.931       .  S
C1001     Br1005   1.930       .  S
C1010      C1011   1.419       .  A
C1010      C1015   1.421       .  A
C1011      C1012   1.412       .  A
C1011     Br1023   1.930   1_545  S
C1012      C1013   1.408       .  A
C1012     Br1027   1.932       .  S
C1013      C1016   1.492       .  S
C1013      C1014   1.406       .  A
C1014      C1015   1.411       .  A
C1014     Br1022   1.930       .  S
C1015     Br1026   1.934       .  S
C1016      C1017   1.410       .  A
C1016      C1021   1.411       .  A
C1017      C1018   1.408       .  A
C1017     Br1028   1.929       .  S
C1018      C1019   1.409       .  A
C1018     Br1024   1.929       .  S
C1019      C1020   1.410       .  A
C1020      C1021   1.412       .  A
C1020     Br1029   1.928       .  S
C1021     Br1025   1.928       .  S
C1030      C1031   1.422       .  A
C1030      C1035   1.427       .  A
C1031      C1032   1.406       .  A
C1031     Br1043   1.935       .  S
C1032      C1033   1.405       .  A
C1032     Br1047   1.933       .  S
C1033      C1036   1.481       .  S
C1033      C1034   1.404       .  A
C1034      C1035   1.408       .  A
C1034     Br1042   1.934       .  S
C1035     Br1046   1.937       .  S
C1036      C1037   1.409       .  A
C1036      C1041   1.409       .  A
C1037      C1038   1.408       .  A
C1037     Br1048   1.928       .  S
C1038      C1039   1.408       .  A
C1038     Br1044   1.928       .  S
C1039      C1040   1.409       .  A
C1040      C1041   1.403       .  A
C1040     Br1049   1.929       .  S
C1041     Br1045   1.932       .  S
C1050      C1051   1.412       .  A
C1050      C1055   1.412       .  A
C1051      C1052   1.413       .  A
C1051     Br1063   1.928       .  S
C1052      C1053   1.411       .  A
C1052     Br1067   1.928       .  S
C1053      C1056   1.493       .  S
C1053      C1054   1.409       .  A
C1054      C1055   1.409       .  A
C1054     Br1062   1.930       .  S
C1055     Br1066   1.930       .  S
C1056      C1057   1.411       .  A
C1056      C1061   1.411       .  A
C1057      C1058   1.410       .  A
C1057     Br1068   1.929       .  S
C1058      C1059   1.409       .  A
C1058     Br1064   1.928       .  S
C1059      C1060   1.411       .  A
C1060      C1061   1.412       .  A
C1060     Br1069   1.930       .  S
C1061     Br1065   1.928       .  S
C1070      C1071   1.411       .  A
C1070      C1075   1.409       .  A
C1071      C1072   1.412       .  A
C1071     Br1083   1.930       .  S
C1072      C1073   1.411       .  A
C1072     Br1087   1.928   1_565  S
C1073      C1076   1.494   1_565  S
C1073      C1074   1.412       .  A
C1074      C1075   1.411       .  A
C1074     Br1082   1.930       .  S
C1075     Br1086   1.928       .  S
C1076      C1077   1.411       .  A
C1076      C1081   1.409       .  A
C1077      C1078   1.413       .  A
C1077     Br1088   1.929       .  S
C1078      C1079   1.413       .  A
C1078     Br1084   1.929       .  S
C1079      C1080   1.414       .  A
C1080      C1081   1.410       .  A
C1080     Br1089   1.931       .  S
C1081     Br1085   1.930   1_545  S
C1090      C1091   1.413       .  A
C1090      C1095   1.412       .  A
C1091      C1092   1.412       .  A
C1091     Br1103   1.928       .  S
C1092      C1093   1.410       .  A
C1092     Br1107   1.929       .  S
C1093      C1096   1.494       .  S
C1093      C1094   1.410       .  A
C1094      C1095   1.411       .  A
C1094     Br1102   1.929       .  S
C1095     Br1106   1.929       .  S
C1096      C1097   1.410       .  A
C1096      C1101   1.410       .  A
C1097      C1098   1.412       .  A
C1097     Br1108   1.928       .  S
C1098      C1099   1.412       .  A
C1098     Br1104   1.930       .  S
C1099      C1100   1.412       .  A
C1100      C1101   1.411       .  A
C1100     Br1109   1.927       .  S
C1101     Br1105   1.930       .  S
C1110      C1111   1.407       .  A
C1110      C1115   1.407       .  A
C1111      C1112   1.405       .  A
C1111     Br1123   1.928       .  S
C1112      C1113   1.410       .  A
C1112     Br1127   1.930       .  S
C1113      C1116   1.482       .  S
C1113      C1114   1.410       .  A
C1114      C1115   1.406       .  A
C1114     Br1122   1.929       .  S
C1115     Br1126   1.927       .  S
C1116      C1117   1.408       .  A
C1116      C1121   1.410       .  A
C1117      C1118   1.402       .  A
C1117     Br1128   1.934       .  S
C1118      C1119   1.413       .  A
C1118     Br1124   1.932       .  S
C1119      C1120   1.410       .  A
C1120      C1121   1.410       .  A
C1120     Br1129   1.927       .  S
C1121     Br1125   1.928       .  S
C1130      C1131   1.416       .  A
C1130      C1135   1.419       .  A
C1131      C1132   1.415       .  A
C1131     Br1143   1.930       .  S
C1132      C1133   1.411       .  A
C1132     Br1147   1.928       .  S
C1133      C1136   1.496       .  S
C1133      C1134   1.408       .  A
C1134      C1135   1.410       .  A
C1134     Br1142   1.931       .  S
C1135     Br1146   1.934       .  S
C1136      C1137   1.411       .  A
C1136      C1141   1.411       .  A
C1137      C1138   1.413       .  A
C1137     Br1148   1.928       .  S
C1138      C1139   1.411       .  A
C1138     Br1144   1.928       .  S
C1139      C1140   1.411       .  A
C1140      C1141   1.412       .  A
C1140     Br1149   1.929       .  S
C1141     Br1145   1.928       .  S
C1150      C1151   1.421       .  A
C1150      C1155   1.421       .  A
C1151      C1152   1.412       .  A
C1151     Br1163   1.933       .  S
C1152      C1153   1.408       .  A
C1152     Br1167   1.931       .  S
C1153      C1156   1.495       .  S
C1153      C1154   1.408       .  A
C1154      C1155   1.412       .  A
C1154     Br1162   1.932       .  S
C1155     Br1166   1.933       .  S
C1156      C1157   1.408       .  A
C1156      C1161   1.407       .  A
C1157      C1158   1.414       .  A
C1157     Br1168   1.931       .  S
C1158      C1159   1.423       .  A
C1158     Br1164   1.933       .  S
C1159      C1160   1.422       .  A
C1160      C1161   1.409       .  A
C1160     Br1169   1.936       .  S
C1161     Br1165   1.933       .  S
C1170      C1171   1.418       .  A
C1170      C1175   1.416       .  A
C1171      C1172   1.414       .  A
C1171     Br1183   1.932       .  S
C1172      C1173   1.410       .  A
C1172     Br1187   1.930       .  S
C1173      C1176   1.500       .  S
C1173      C1174   1.412       .  A
C1174      C1175   1.414       .  A
C1174     Br1182   1.930       .  S
C1175     Br1186   1.931       .  S
C1176      C1177   1.412       .  A
C1176      C1181   1.413       .  A
C1177      C1178   1.412       .  A
C1177     Br1188   1.928       .  S
C1178      C1179   1.410       .  A
C1178     Br1184   1.929       .  S
C1179      C1180   1.410       .  A
C1180      C1181   1.413       .  A
C1180     Br1189   1.928       .  S
C1181     Br1185   1.928       .  S
C1190      C1191   1.411       .  A
C1190      C1195   1.410       .  A
C1191      C1192   1.412       .  A
C1191     Br1203   1.929       .  S
C1192      C1193   1.411       .  A
C1192     Br1207   1.928       .  S
C1193      C1196   1.494       .  S
C1193      C1194   1.410       .  A
C1194      C1195   1.410       .  A
C1194     Br1202   1.930       .  S
C1195     Br1206   1.929       .  S
C1196      C1197   1.410       .  A
C1196      C1201   1.410       .  A
C1197      C1198   1.412       .  A
C1197     Br1208   1.929       .  S
C1198      C1199   1.414       .  A
C1198     Br1204   1.930       .  S
C1199      C1200   1.414       .  A
C1200      C1201   1.411       .  A
C1200     Br1209   1.930       .  S
C1201     Br1205   1.930       .  S
C1210      C1211   1.421       .  A
C1210      C1215   1.419       .  A
C1211      C1212   1.405       .  A
C1211     Br1223   1.937       .  S
C1212      C1213   1.405       .  A
C1212     Br1227   1.933       .  S
C1213      C1216   1.479       .  S
C1213      C1214   1.405       .  A
C1214      C1215   1.407       .  A
C1214     Br1222   1.931       .  S
C1215     Br1226   1.932       .  S
C1216      C1217   1.407       .  A
C1216      C1221   1.408       .  A
C1217      C1218   1.402       .  A
C1217     Br1228   1.933       .  S
C1218      C1219   1.411       .  A
C1218     Br1224   1.927       .  S
C1219      C1220   1.411       .  A
C1220      C1221   1.408       .  A
C1220     Br1229   1.929       .  S
C1221     Br1225   1.928       .  S
C1230      C1231   1.408       .  A
C1230      C1235   1.409       .  A
C1231      C1232   1.407       .  A
C1231     Br1243   1.928       .  S
C1232      C1233   1.409       .  A
C1232     Br1247   1.929       .  S
C1233      C1236   1.481       .  S
C1233      C1234   1.408       .  A
C1234      C1235   1.406       .  A
C1234     Br1242   1.929       .  S
C1235     Br1246   1.929       .  S
C1236      C1237   1.409       .  A
C1236      C1241   1.406       .  A
C1237      C1238   1.410       .  A
C1237     Br1248   1.927       .  S
C1238      C1239   1.410       .  A
C1238     Br1244   1.924       .  S
C1239      C1240   1.414       .  A
C1240      C1241   1.402       .  A
C1240     Br1249   1.930       .  S
C1241     Br1245   1.934       .  S
C1250      C1251   1.410       .  A
C1250      C1255   1.411       .  A
C1251      C1252   1.409       .  A
C1251     Br1263   1.930       .  S
C1252      C1253   1.410       .  A
C1252     Br1267   1.930       .  S
C1253      C1256   1.493       .  S
C1253      C1254   1.411       .  A
C1254      C1255   1.413       .  A
C1254     Br1262   1.927       .  S
C1255     Br1266   1.928       .  S
C1256      C1257   1.410       .  A
C1256      C1261   1.411       .  A
C1257      C1258   1.412       .  A
C1257     Br1268   1.928       .  S
C1258      C1259   1.411       .  A
C1258     Br1264   1.929       .  S
C1259      C1260   1.410       .  A
C1260      C1261   1.410       .  A
C1260     Br1269   1.929   1_565  S
C1261     Br1265   1.929       .  S
C1270      C1271   1.410       .  A
C1270      C1275   1.410       .  A
C1271      C1272   1.410       .  A
C1271     Br1283   1.928   1_556  S
C1272      C1273   1.410       .  A
C1272     Br1287   1.929       .  S
C1273      C1276   1.496       .  S
C1273      C1274   1.412       .  A
C1274      C1275   1.413       .  A
C1274     Br1282   1.928       .  S
C1275     Br1286   1.929   1_455  S
C1276      C1277   1.410       .  A
C1276      C1281   1.409       .  A
C1277      C1278   1.414       .  A
C1277     Br1288   1.929       .  S
C1278      C1279   1.417       .  A
C1278     Br1284   1.931       .  S
C1279      C1280   1.417       .  A
C1280      C1281   1.411       .  A
C1280     Br1289   1.932       .  S
C1281     Br1285   1.931       .  S
C1290      C1291   1.420       .  A
C1290      C1295   1.420       .  A
C1291      C1292   1.409       .  A
C1291     Br1303   1.934       .  S
C1292      C1293   1.407       .  A
C1292     Br1307   1.932       .  S
C1293      C1296   1.493       .  S
C1293      C1294   1.409       .  A
C1294      C1295   1.413       .  A
C1294     Br1302   1.931       .  S
C1295     Br1306   1.932       .  S
C1296      C1297   1.407       .  A
C1296      C1301   1.408       .  A
C1297      C1298   1.411       .  A
C1297     Br1308   1.932       .  S
C1298      C1299   1.422       .  A
C1298     Br1304   1.935       .  S
C1299      C1300   1.421       .  A
C1300      C1301   1.411       .  A
C1300     Br1309   1.934       .  S
C1301     Br1305   1.932       .  S
C1310      C1311   1.410       .  A
C1310      C1315   1.410       .  A
C1311      C1312   1.410       .  A
C1311     Br1323   1.929       .  S
C1312      C1313   1.410       .  A
C1312     Br1327   1.929       .  S
C1313      C1316   1.493       .  S
C1313      C1314   1.411       .  A
C1314      C1315   1.412       .  A
C1314     Br1322   1.928       .  S
C1315     Br1326   1.928       .  S
C1316      C1317   1.410       .  A
C1316      C1321   1.410       .  A
C1317      C1318   1.413       .  A
C1317     Br1328   1.928       .  S
C1318      C1319   1.412       .  A
C1318     Br1324   1.928       .  S
C1319      C1320   1.410       .  A
C1320      C1321   1.409       .  A
C1320     Br1329   1.927   1_455  S
C1321     Br1325   1.930       .  S
C1330      C1331   1.413       .  A
C1330      C1335   1.414       .  A
C1331      C1332   1.412       .  A
C1331     Br1343   1.923       .  S
C1332      C1333   1.410       .  A
C1332     Br1347   1.930       .  S
C1333      C1336   1.496       .  S
C1333      C1334   1.410       .  A
C1334      C1335   1.413       .  A
C1334     Br1342   1.928       .  S
C1335     Br1346   1.928       .  S
C1336      C1337   1.412       .  A
C1336      C1341   1.410       .  A
C1337      C1338   1.413       .  A
C1337     Br1348   1.928       .  S
C1338      C1339   1.410       .  A
C1338     Br1344   1.928       .  S
C1339      C1340   1.412       .  A
C1340      C1341   1.412       .  A
C1340     Br1349   1.930   1_545  S
C1341     Br1345   1.928       .  S
C1350      C1351   1.409       .  A
C1350      C1355   1.410       .  A
C1351      C1352   1.407       .  A
C1351     Br1363   1.928   1_655  S
C1352      C1353   1.409       .  A
C1352     Br1367   1.930       .  S
C1353      C1356   1.488       .  S
C1353      C1354   1.410       .  A
C1354      C1355   1.411       .  A
C1354     Br1362   1.928       .  S
C1355     Br1366   1.928       .  S
C1356      C1357   1.410       .  A
C1356      C1361   1.409       .  A
C1357      C1358   1.409       .  A
C1357     Br1368   1.930       .  S
C1358      C1359   1.411       .  A
C1358     Br1364   1.931       .  S
C1359      C1360   1.410       .  A
C1360      C1361   1.409       .  A
C1360     Br1369   1.929       .  S
C1361     Br1365   1.929       .  S
C1370      C1371   1.417       .  A
C1370      C1375   1.416       .  A
C1371      C1372   1.410       .  A
C1371     Br1383   1.933       .  S
C1372      C1373   1.411       .  A
C1372     Br1387   1.933       .  S
C1373      C1376   1.499   1_565  S
C1373      C1374   1.412       .  A
C1374      C1375   1.414       .  A
C1374     Br1382   1.930       .  S
C1375     Br1386   1.929       .  S
C1376      C1377   1.408       .  A
C1376      C1381   1.409       .  A
C1377      C1378   1.413       .  A
C1377     Br1388   1.933   1_545  S
C1378      C1379   1.425       .  A
C1378     Br1384   1.935       .  S
C1379      C1380   1.423       .  A
C1380      C1381   1.413       .  A
C1380     Br1389   1.935       .  S
C1381     Br1385   1.932       .  S
C1390      C1391   1.412       .  A
C1390      C1395   1.411       .  A
C1391      C1392   1.411       .  A
C1391     Br1403   1.930       .  S
C1392      C1393   1.410       .  A
C1392     Br1407   1.929   1_455  S
C1393      C1396   1.495   1_455  S
C1393      C1394   1.412       .  A
C1394      C1395   1.412       .  A
C1394     Br1402   1.928       .  S
C1395     Br1406   1.929       .  S
C1396      C1397   1.411       .  A
C1396      C1401   1.411       .  A
C1397      C1398   1.414       .  A
C1397     Br1408   1.928   1_655  S
C1398      C1399   1.412       .  A
C1398     Br1404   1.927       .  S
C1399      C1400   1.410       .  A
C1400      C1401   1.410       .  A
C1400     Br1409   1.924       .  S
C1401     Br1405   1.930       .  S
C1410      C1411   1.409       .  A
C1410      C1415   1.409       .  A
C1411      C1412   1.407       .  A
C1411     Br1423   1.925       .  S
C1412      C1413   1.408       .  A
C1412     Br1427   1.929       .  S
C1413      C1416   1.486       .  S
C1413      C1414   1.410       .  A
C1414      C1415   1.410       .  A
C1414     Br1422   1.928       .  S
C1415     Br1426   1.927       .  S
C1416      C1417   1.410       .  A
C1416      C1421   1.409       .  A
C1417      C1418   1.411       .  A
C1417     Br1428   1.927       .  S
C1418      C1419   1.410       .  A
C1418     Br1424   1.929       .  S
C1419      C1420   1.410       .  A
C1420      C1421   1.405       .  A
C1420     Br1429   1.931       .  S
C1421     Br1425   1.931       .  S
C1430      C1431   1.419       .  A
C1430      C1435   1.419       .  A
C1431      C1432   1.406       .  A
C1431     Br1443   1.933       .  S
C1432      C1433   1.405       .  A
C1432     Br1447   1.934       .  S
C1433      C1436   1.477       .  S
C1433      C1434   1.403       .  A
C1434      C1435   1.406       .  A
C1434     Br1442   1.932       .  S
C1435     Br1446   1.926       .  S
C1436      C1437   1.406       .  A
C1436      C1441   1.407       .  A
C1437      C1438   1.406       .  A
C1437     Br1448   1.929       .  S
C1438      C1439   1.411       .  A
C1438     Br1444   1.926       .  S
C1439      C1440   1.415       .  A
C1440      C1441   1.403       .  A
C1440     Br1449   1.933   1_545  S
C1441     Br1445   1.933       .  S
