geometry optimzed in LAMMPS
_audit_creation_date              2020-11-30 
_audit_creation_method            'lammps2cif' 
_symmetry_space_group_name_H-M    'P1' 
_symmetry_Int_Tables_number       1 
_symmetry_cell_setting            triclinic 
loop_ 
_symmetry_equiv_pos_as_xyz 
  x,y,z 
_cell_length_a                    35.693664207528414 
_cell_length_b                    35.591957619238705 
_cell_length_c                    27.97163043284856 
_cell_angle_alpha                 90.14221954482133 
_cell_angle_beta                  90.26824611080362 
_cell_angle_gamma                 120.5237575329872 
loop_ 
_atom_site_label 
_atom_site_type_symbol 
_atom_site_fract_x 
_atom_site_fract_y 
_atom_site_fract_z 
_atom_site_charge 
C1          C  0.29822827  0.14215024  0.96354340     0.05410
C2          C  0.32179860  0.18777559  0.96488760    -0.10740
C3          C  0.36720088  0.21014778  0.96193308     0.02910
C4          C  0.38902638  0.18690444  0.95763460    -0.09270
C5          C  0.36538623  0.14124628  0.95626749     0.05400
C6          C  0.31998223  0.11886559  0.95926100    -0.08690
H7          H  0.30481010  0.20580730  0.96679521     0.10990
H8          H  0.42413821  0.20426294  0.95436619     0.08520
H9          H  0.30161376  0.08353557  0.95722749     0.08370
C10         C  0.29475552  0.14481337  0.30673624     0.05410
C11         C  0.31783448  0.19059840  0.30547341    -0.10740
C12         C  0.36350082  0.21369468  0.30598568     0.02910
C13         C  0.38598995  0.19093569  0.30783234    -0.09270
C14         C  0.36310837  0.14527193  0.30920398     0.05400
C15         C  0.31750055  0.12224659  0.30859609    -0.08690
H16         H  0.30036193  0.20817323  0.30500809     0.10990
H17         H  0.42124968  0.20875774  0.30891731     0.08520
H18         H  0.29977314  0.08692339  0.31030596     0.08370
C19         C  0.21694335  0.36092201  0.79544702     0.05410
C20         C  0.19457794  0.38366642  0.79949228    -0.10740
C21         C  0.14911475  0.36066608  0.80239072     0.02910
C22         C  0.12610000  0.31504254  0.80118372    -0.09270
C23         C  0.14848870  0.29237843  0.79719856     0.05400
C24         C  0.19389709  0.31527712  0.79430319    -0.08690
H25         H  0.21248673  0.41900108  0.80142380     0.10990
H26         H  0.09097600  0.29723301  0.80440900     0.08520
H27         H  0.21129548  0.29764274  0.79261733     0.08370
C28         C  0.22249274  0.35930725  0.45259368     0.05410
C29         C  0.20024115  0.38233002  0.45093267    -0.10740
C30         C  0.15468037  0.35983711  0.45060295     0.02910
C31         C  0.13127884  0.31413481  0.45209329    -0.09270
C32         C  0.15331084  0.29087328  0.45379563     0.05400
C33         C  0.19898317  0.31353185  0.45399869    -0.08690
H34         H  0.21834157  0.41765114  0.44912133     0.10990
H35         H  0.09602384  0.29670089  0.45120915     0.08520
H36         H  0.21612244  0.29562430  0.45432779     0.08370
C37         C  0.00054245  0.48566744  0.06273943     0.44730
N38         N  0.02462539  0.02610912  0.99094935     0.03620
C39         C  0.38103209  0.41816794  0.79471177    -0.04250
H40         H  0.45640796  0.33728501  0.86118694     0.09120
C41         C  0.10246711  0.47267571  0.82257144    -0.04600
Co42       Co  0.43705404  0.45992959  0.92879315     0.74180
N43         N  0.45350320  0.39361315  0.88425409    -0.23780
Co44       Co  0.47228886  0.43448495  0.82573041     0.74070
C45         C  0.08350115  0.42572457  0.81967592     0.44840
N46         N  0.11538850  0.06007230  0.89222290     0.03240
N47         N  0.03212878  0.43968878  0.82431862     0.03350
N48         N  0.36008941  0.43623476  0.86305109    -0.44630
H49         H  0.43662600  0.42600925  0.03859439     0.09100
N50         N  0.43933011  0.40268572  0.92355814     0.03630
N51         N  0.49082788  0.47620729  0.76832828     0.03370
C52         C  0.01443360  0.01805277  0.69669106     0.44980
N53         N  0.10247516  0.07075929  0.93138191    -0.23240
C54         C  0.40921622  0.02640366  0.93865436    -0.04160
N55         N  0.04506440  0.03657876  0.03259898    -0.44340
N56         N  0.47053096  0.46601084  0.72658354    -0.44570
C57         C  0.42831670  0.07350228  0.93929678     0.44750
N58         N  0.39970911  0.44231550  0.86703269     0.03620
N59         N  0.06156687  0.10882222  0.87520207    -0.23260
N60         N  0.47523431  0.47777459  0.98945025    -0.23750
N61         N  0.07583869  0.09980026  0.83594575     0.03260
H62         H  0.05904966  0.16533377  0.89840505     0.09150
H63         H  0.07881667  0.07702192  0.72119477     0.09180
N64         N  0.41265587  0.43171763  0.82783273    -0.23800
N65         N  0.06812533  0.47823454  0.82535912    -0.23410
N66         N  0.47937344  0.05919147  0.93407152     0.03620
C67         C  0.43114796  0.33973714  0.93582975     0.45020
C68         C  0.13416151  0.08457322  0.96442298    -0.04670
N69         N  0.03982705  0.02508657  0.76996951    -0.23410
H70         H  0.13624870  0.49830329  0.82214846     0.09170
N71         N  0.42471023  0.37072754  0.95519911    -0.44640
H72         H  0.13373995  0.09706608  0.99957857     0.09150
C73         C  0.08442380  0.16289351  0.82379613     0.44850
C74         C  0.46588181  0.45657041  0.03094542    -0.04160
Co75       Co  0.04282783  0.06782276  0.93363519     0.73820
N76         N  0.15511540  0.06642847  0.89612994    -0.44350
C77         C  0.34674582  0.42198126  0.81812934     0.45120
N78         N  0.47180725  0.09191626  0.93664829    -0.44340
Co79       Co  0.07799879  0.04257130  0.83051061     0.73890
C80         C  0.04940851  0.04653396  0.72864508    -0.04670
C81         C  0.44953779  0.35435234  0.88865039    -0.04230
N82         N  0.44342596  0.02062363  0.93527242    -0.23760
N83         N  0.03986999  0.40711119  0.82060977    -0.44520
H84         H  0.38148375  0.40583050  0.75947617     0.09130
C85         C  0.06578892  0.14820586  0.87089347    -0.04650
Cl86       Cl  0.01245908  0.00507794  0.87923414    -0.47650
C87         C  0.16848617  0.08089143  0.94099676     0.44880
H88         H  0.37547971  0.00088327  0.94086196     0.09090
N89         N  0.09071953  0.13183974  0.80441631    -0.44360
C90         C  0.16388356  0.07627100  0.32868311     0.44730
N91         N  0.09823166  0.06208906  0.33651276     0.03620
C92         C  0.47873888  0.47725214  0.53465842    -0.04250
H93         H  0.01650326  0.37192548  0.43761666     0.09120
C94         C  0.43326464  0.38104433  0.29718310    -0.04600
Co95       Co  0.06557377  0.03008145  0.43581841     0.74180
N96         N  0.03538176  0.43999787  0.43506075    -0.23780
Co97       Co  0.47669206  0.44130127  0.43021754     0.74070
C98         C  0.43342510  0.34572868  0.32343393     0.44840
N99         N  0.49599484  0.49580970  0.26589102     0.03240
N100        N  0.45865466  0.40209601  0.36886035     0.03350
N101        N  0.02766641  0.02425818  0.53776447    -0.44630
H102        H  0.16573455  0.05336765  0.40485357     0.09100
N103        N  0.07354631  0.47644577  0.43613363     0.03630
N104        N  0.41901686  0.44255135  0.42272226     0.03370
C105        C  0.35325777  0.42801963  0.43026143     0.44980
N106        N  0.02041426  0.02243972  0.26848536    -0.23240
C107        C  0.08391077  0.12341825  0.46257506    -0.04160
N108        N  0.13163003  0.07911444  0.30669271    -0.44340
N109        N  0.38552557  0.42533892  0.45238778    -0.44570
C110        C  0.08355410  0.15872466  0.43645017     0.44750
N111        N  0.02155120  0.00829209  0.49353896     0.03620
N112        N  0.48525264  0.06793806  0.32305603    -0.23260
N113        N  0.10755021  0.05005152  0.37745305    -0.23750
N114        N  0.44709893  0.03149743  0.32424379     0.03260
H115        H  0.50371969  0.13581728  0.31799063     0.09150
H116        H  0.35152212  0.45090447  0.35402771     0.09180
N117        N  0.49637088  0.48230474  0.49097494    -0.23800
N118        N  0.44956201  0.41468228  0.32815240    -0.23410
N119        N  0.05869426  0.10249022  0.39083205     0.03620
C120        C  0.08864352  0.42559821  0.44041596     0.45020
C121        C  0.03782342  0.02717532  0.22469478    -0.04670
N122        N  0.40980292  0.45462258  0.38174448    -0.23410
H123        H  0.41967536  0.38036066  0.26232882     0.09170
N124        N  0.10649038  0.46929690  0.43948192    -0.44640
H125        H  0.06805133  0.05489277  0.21295710     0.09150
C126        C  0.43156369  0.08195946  0.31924080     0.44850
C127        C  0.14826972  0.05756196  0.37561830    -0.04160
Co128      Co  0.04049842  0.06341130  0.32937720     0.73820
N129        N  0.48950335  0.47974455  0.22169752    -0.44350
C130        C  0.99167957  0.99602505  0.56274212     0.45120
N131        N  0.06826817  0.14361224  0.39217082    -0.44340
Co132      Co  0.45196351  0.47445497  0.32351687     0.73890
C133        C  0.36898830  0.44688054  0.38338513    -0.04670
C134        C  0.04166567  0.40596154  0.43759454    -0.04230
N135        N  0.06779371  0.08984302  0.43149574    -0.23760
N136        N  0.44881493  0.36088950  0.36767945    -0.44520
H137        H  0.44861591  0.44928979  0.54621407     0.09130
C138        C  0.47868866  0.10180035  0.31985710    -0.04650
Cl139      Cl  0.00368251  0.99848407  0.37997365    -0.47650
C140        C  0.02585044  0.50764747  0.19640426     0.44880
H141        H  0.09744903  0.12407503  0.49745190     0.09090
N142        N  0.41398106  0.03841058  0.32194124    -0.44360
C143        C  0.01624909  0.02370392  0.64441052    -0.14160
C144        C  0.98643805  0.99381223  0.61507475    -0.29330
H145        H  0.95720573  0.46642854  0.63160219     0.14870
H146        H  0.54345350  0.05297746  0.62819752     0.15440
C147        C  0.99960086  0.48013868  0.11502352    -0.14160
C148        C  0.03015293  0.50987497  0.14393100    -0.29330
H149        H  0.05884471  0.03702851  0.12694422     0.14870
H150        H  0.05818331  0.53822145  0.12874757     0.15440
C151        C  0.10790068  0.20458043  0.44778913    -0.11000
C152        C  0.12888187  0.24377029  0.45245447    -0.12560
C153        C  0.30817228  0.40353104  0.44358754    -0.11000
C154        C  0.26934822  0.38282989  0.44977395    -0.12560
C155        C  0.11260693  0.40321249  0.44427718    -0.11000
C156        C  0.13194320  0.38362976  0.44739603    -0.12560
C157        C  0.10583905  0.20718034  0.80814797    -0.11000
C158        C  0.12510575  0.24571844  0.80047462    -0.12540
C159        C  0.26359843  0.38411587  0.79695887    -0.11000
C160        C  0.30227028  0.40230270  0.80337812    -0.12560
C161        C  0.12603006  0.38368211  0.80837290    -0.11000
C162        C  0.10635471  0.40260344  0.81367696    -0.12560
C163        C  0.38661499  0.12225398  0.31248396    -0.11000
C164        C  0.40700660  0.10374208  0.31555547    -0.12560
C165        C  0.40871097  0.29990253  0.31222363    -0.11000
C166        C  0.38757105  0.26075384  0.30747541    -0.12560
C167        C  0.20897226  0.10041496  0.31520083    -0.11000
C168        C  0.24784648  0.12094335  0.30920352    -0.12560
C169        C  0.38757498  0.11735662  0.95019044    -0.11000
C170        C  0.40608220  0.09726217  0.94499132    -0.12560
C171        C  0.41011151  0.29545822  0.95156296    -0.11000
C172        C  0.39101382  0.25686196  0.95899273    -0.12560
C173        C  0.25163172  0.11940431  0.96206434    -0.11000
C174        C  0.21298273  0.10103461  0.95562671    -0.12560
C175        C  0.29234104  0.64206250  0.95724748     0.05410
C176        C  0.31655314  0.68779344  0.95988220    -0.10740
C177        C  0.36217579  0.70976783  0.95920254     0.02910
C178        C  0.38352669  0.68596180  0.95578422    -0.09270
C179        C  0.35953342  0.64033921  0.95302348     0.05400
C180        C  0.31393892  0.61842573  0.95380036    -0.08690
H181        H  0.29997047  0.70621766  0.96150648     0.10990
H182        H  0.41875121  0.70295255  0.95450128     0.08520
H183        H  0.29532664  0.58314809  0.95106636     0.08370
C184        C  0.30081129  0.64455931  0.30031139     0.05410
C185        C  0.32295472  0.69019151  0.30126028    -0.10740
C186        C  0.36839189  0.71389489  0.30455374     0.02910
C187        C  0.39164511  0.69196472  0.30688715    -0.09270
C188        C  0.36941100  0.64630788  0.30596053     0.05400
C189        C  0.32400289  0.62260444  0.30262475    -0.08690
H190        H  0.30485459  0.70714623  0.30074280     0.10990
H191        H  0.42678882  0.71030534  0.31027571     0.08520
H192        H  0.30674417  0.58723870  0.30291267     0.08370
C193        C  0.21793211  0.85571678  0.80670407     0.05410
C194        C  0.19710579  0.88009141  0.80812653    -0.10740
C195        C  0.15162134  0.85888917  0.80864146     0.02910
C196        C  0.12692994  0.81322576  0.80758735    -0.09270
C197        C  0.14767720  0.78875011  0.80615021     0.05400
C198        C  0.19321430  0.81003466  0.80571128    -0.08690
H199        H  0.21623322  0.91541303  0.80970403     0.10990
H200        H  0.09173447  0.79679708  0.80877495     0.08520
H201        H  0.20934367  0.79113695  0.80570455     0.08370
C202        C  0.22143971  0.86462914  0.46359464     0.05410
C203        C  0.19768681  0.88600923  0.45942819    -0.10740
C204        C  0.15218697  0.86174626  0.45626530     0.02910
C205        C  0.13048350  0.81612711  0.45734106    -0.09270
C206        C  0.15414278  0.79471728  0.46146903     0.05400
C207        C  0.19962624  0.81895770  0.46457040    -0.08690
H208        H  0.21456525  0.92131369  0.45774309     0.10990
H209        H  0.09533194  0.79732634  0.45413489     0.08520
H210        H  0.21801024  0.80234194  0.46653654     0.08370
C211        C  0.02172934  0.00319627  0.06220101     0.44730
N212        N  0.01140786  0.51569996  0.99366895     0.03620
C213        C  0.38274080  0.91455561  0.80264107    -0.04250
H214        H  0.45688508  0.83662626  0.86392831     0.09120
C215        C  0.11178329  0.97718082  0.82374865    -0.04600
Co216      Co  0.44555116  0.96320931  0.93311033     0.74180
N217        N  0.46033282  0.89562700  0.88885001    -0.23780
Co218      Co  0.47637528  0.93445142  0.82827293     0.74070
C219        C  0.09138498  0.93005811  0.81912606     0.44840
N220        N  0.10520997  0.55411499  0.89128028     0.03240
N221        N  0.04161407  0.94645914  0.82206397     0.03350
N222        N  0.36413344  0.93351169  0.87204336    -0.44630
H223        H  0.45641641  0.94007924  0.04845600     0.09100
N224        N  0.44839362  0.90603680  0.92902428     0.03630
N225        N  0.49237089  0.97437388  0.76843607     0.03370
C226        C  0.99329104  0.49978383  0.69702299     0.44980
N227        N  0.09241714  0.56297228  0.93191065    -0.23240
C228        C  0.40277174  0.52483570  0.93520854    -0.04160
N229        N  0.02792595  0.52197901  0.03763849    -0.44340
N230        N  0.47126439  0.96364200  0.72702389    -0.44570
C231        C  0.42271282  0.57191609  0.93952206     0.44750
N232        N  0.40462302  0.94159087  0.87355579     0.03620
N233        N  0.05157512  0.60179965  0.87753483    -0.23260
N234        N  0.48812394  0.98632375  0.99166546    -0.23750
N235        N  0.06381295  0.59263146  0.83672411     0.03260
H236        H  0.05389420  0.65978677  0.90441353     0.09150
H237        H  0.05882617  0.56272598  0.71336200     0.09180
N238        N  0.41625918  0.93055535  0.83359369    -0.23800
N239        N  0.07831797  0.98428849  0.82542610    -0.23410
N240        N  0.47301948  0.55610464  0.93659495     0.03620
C241        C  0.43515079  0.84078344  0.93987133     0.45020
C242        C  0.12564712  0.57848647  0.96337199    -0.04670
N243        N  0.02577044  0.51505996  0.76877776    -0.23410
H244        H  0.14588782  0.00188648  0.82513418     0.09170
N245        N  0.43193698  0.87352475  0.96012548    -0.44640
H246        H  0.12601910  0.59126600  0.99860433     0.09150
C247        C  0.07674714  0.65793438  0.82828859     0.44850
C248        C  0.48390538  0.97011082  0.03588628    -0.04160
Co249      Co  0.03230891  0.55980238  0.93599250     0.73820
N250        N  0.14602608  0.56314647  0.89298270    -0.44350
C251        C  0.34866741  0.91720543  0.82817322     0.45120
N252        N  0.46624501  0.58935083  0.94033776    -0.44340
Co253      Co  0.06631143  0.53555552  0.82979003     0.73890
C254        C  0.03103861  0.53241864  0.72486786    -0.04670
C255        C  0.45347552  0.85514095  0.89255739    -0.04230
N256        N  0.43647455  0.51810186  0.93351547    -0.23760
N257        N  0.04797158  0.91299570  0.81822670    -0.44520
H258        H  0.38178149  0.90096894  0.76771930     0.09130
C259        C  0.05835452  0.64235994  0.87534930    -0.04650
Cl260      Cl  0.00163598  0.49773723  0.88017506    -0.47650
C261        C  0.16081966  0.57791698  0.93746021     0.44880
H262        H  0.36874765  0.49988270  0.93409447     0.09090
N263        N  0.08022352  0.62591146  0.80665413    -0.44360
C264        C  0.17152382  0.57829826  0.32376444     0.44730
N265        N  0.10865306  0.56961912  0.33604067     0.03620
C266        C  0.47816125  0.97899500  0.53571490    -0.04250
H267        H  0.00958106  0.86585044  0.43447849     0.09120
C268        C  0.42523381  0.87801229  0.30309294    -0.04600
Co269      Co  0.07737611  0.53700200  0.43411015     0.74180
N270        N  0.02597565  0.93327756  0.43370780    -0.23780
Co271      Co  0.47245471  0.94124849  0.43351528     0.74070
C272        C  0.42882573  0.84440135  0.32866659     0.44840
N273        N  0.48267446  0.98723068  0.26878566     0.03240
N274        N  0.45146423  0.90007805  0.37422983     0.03350
N275        N  0.04528451  0.53915339  0.53297875    -0.44630
H276        H  0.17454359  0.55356359  0.39865546     0.09100
N277        N  0.06336321  0.97044019  0.43700070     0.03630
N278        N  0.41524172  0.94357596  0.42926799     0.03370
C279        C  0.35140560  0.93299083  0.44131078     0.44980
N280        N  0.03390850  0.53284806  0.26999102    -0.23240
C281        C  0.09475573  0.62931590  0.46350973    -0.04160
N282        N  0.14038734  0.58435677  0.30432452    -0.44340
N283        N  0.38366538  0.92890109  0.46129452    -0.44570
C284        C  0.09162117  0.66386519  0.43936663     0.44750
N285        N  0.03563598  0.51846778  0.49144831     0.03620
N286        N  0.49221734  0.57125382  0.32497797    -0.23260
N287        N  0.11797856  0.55573882  0.37549090    -0.23750
N288        N  0.45461951  0.53428828  0.32196018     0.03260
H289        H  0.50943418  0.63888357  0.32409572     0.09150
H290        H  0.34650803  0.95395996  0.36510914     0.09180
N291        N  0.49477961  0.98387355  0.49175009    -0.23800
N292        N  0.44020986  0.91140158  0.33416646    -0.23410
N293        N  0.06909917  0.60941172  0.39187200     0.03620
C294        C  0.08088817  0.92138107  0.44021907     0.45020
C295        C  0.05461579  0.54273281  0.22822662    -0.04670
N296        N  0.40461535  0.95520511  0.38898950    -0.23410
H297        H  0.41192694  0.87689143  0.26795203     0.09170
N298        N  0.09717982  0.96479335  0.44105676    -0.44640
H299        H  0.08458038  0.57254757  0.22035616     0.09150
C300        C  0.43798220  0.58389916  0.31859126     0.44850
C301        C  0.15724807  0.56004935  0.37109717    -0.04160
Co302      Co  0.05144127  0.57137831  0.33048222     0.73820
N303        N  0.47183658  0.96562290  0.22771139    -0.44350
C304        C  0.01163405  0.51546010  0.56211804     0.45120
N305        N  0.07632843  0.64965243  0.39490142    -0.44340
Co306      Co  0.44306772  0.97110122  0.32845790     0.73890
C307        C  0.36488270  0.94979292  0.39333200    -0.04670
C308        C  0.03380300  0.90019539  0.43558720    -0.04230
N309        N  0.07997503  0.59682118  0.43123376    -0.23760
N310        N  0.44453531  0.85988035  0.37270195    -0.44520
H311        H  0.44838409  0.95096078  0.54786516     0.09130
C312        C  0.48493427  0.60463031  0.32300639    -0.04650
Cl313      Cl  0.01475551  0.50580447  0.37962726    -0.47650
C314        C  0.00557078  0.98863137  0.19741454     0.44880
H315        H  0.10800644  0.62945215  0.49840011     0.09090
N316        N  0.42108029  0.54038274  0.31802168    -0.44360
C317        C  0.98576941  0.49569950  0.64487888    -0.14160
C318        C  0.01469709  0.52404994  0.61402960    -0.29330
H319        H  0.04437063  0.05223718  0.62963991     0.14870
H320        H  0.54324823  0.55320415  0.62721011     0.15440
C321        C  0.03009217  0.00764854  0.11418898    -0.14160
C322        C  0.00171952  0.97959326  0.14557564    -0.29330
H323        H  0.97161454  0.45175049  0.13020671     0.14870
H324        H  0.97260725  0.95056724  0.13282285     0.15440
C325        C  0.11299863  0.70900336  0.45278452    -0.11000
C326        C  0.13181473  0.74789116  0.45899880    -0.12560
C327        C  0.30699382  0.90984819  0.45666869    -0.11000
C328        C  0.26823021  0.88939927  0.46273001    -0.12560
C329        C  0.10639624  0.90082941  0.44565821    -0.11000
C330        C  0.12765556  0.88343534  0.45055811    -0.12560
C331        C  0.10098010  0.70303129  0.81482766    -0.11000
C332        C  0.12225323  0.74188142  0.80863875    -0.12540
C333        C  0.26461584  0.87761355  0.80959263    -0.11000
C334        C  0.30341364  0.89605945  0.81570234    -0.12560
C335        C  0.13034797  0.88400201  0.81188214    -0.11000
C336        C  0.11263298  0.90509481  0.81513129    -0.12560
C337        C  0.39308956  0.62375197  0.31011764    -0.11000
C338        C  0.41322564  0.60517416  0.31400244    -0.12560
C339        C  0.40892249  0.79927805  0.31584406    -0.11000
C340        C  0.39088469  0.76056073  0.30887421    -0.12560
C341        C  0.21568782  0.60027924  0.30833443    -0.11000
C342        C  0.25423487  0.62024572  0.30162705    -0.12560
C343        C  0.38182562  0.61619328  0.94828510    -0.11000
C344        C  0.40073047  0.59624392  0.94419395    -0.12560
C345        C  0.40935481  0.79575600  0.95342202    -0.11000
C346        C  0.38730126  0.75678491  0.95858077    -0.12560
C347        C  0.24538982  0.61943992  0.95521791    -0.11000
C348        C  0.20635157  0.60026661  0.94987927    -0.12560
C349        C  0.79686063  0.14176298  0.95587526     0.05410
C350        C  0.81979221  0.18734721  0.95895959    -0.10740
C351        C  0.86530499  0.21031079  0.95926766     0.02910
C352        C  0.88789447  0.18777412  0.95653665    -0.09270
C353        C  0.86498453  0.14222373  0.95340835     0.05400
C354        C  0.81943481  0.11915757  0.95312208    -0.08690
H355        H  0.80231272  0.20492532  0.95976481     0.10990
H356        H  0.92315036  0.20566142  0.95575706     0.08520
H357        H  0.80167590  0.08389941  0.94983705     0.08370
C358        C  0.79606937  0.14532050  0.29966245     0.05410
C359        C  0.81975129  0.19110579  0.29991846    -0.10740
C360        C  0.86531829  0.21358138  0.30337758     0.02910
C361        C  0.88708151  0.19012320  0.30669669    -0.09270
C362        C  0.86350207  0.14438772  0.30655246     0.05400
C363        C  0.81803373  0.12207844  0.30298246    -0.08690
H364        H  0.80276572  0.20914203  0.29838142     0.10990
H365        H  0.92222693  0.20740920  0.31002032     0.08520
H366        H  0.79973970  0.08671859  0.30358995     0.08370
C367        C  0.71413378  0.35538039  0.79705111     0.05410
C368        C  0.69213913  0.37845433  0.80146444    -0.10740
C369        C  0.64664157  0.35596840  0.80310968     0.02910
C370        C  0.62312741  0.31031646  0.80022233    -0.09270
C371        C  0.64508276  0.28715628  0.79576691     0.05400
C372        C  0.69062131  0.30973624  0.79422581    -0.08690
H373        H  0.71039130  0.41373392  0.80449827     0.10990
H374        H  0.58793936  0.29285256  0.80233152     0.08520
H375        H  0.70771362  0.29182694  0.79205574     0.08370
C376        C  0.72516854  0.36458756  0.45364715     0.05410
C377        C  0.70255592  0.38726828  0.45248283    -0.10740
C378        C  0.65699511  0.36426932  0.45063411     0.02910
C379        C  0.63405896  0.31862459  0.45005740    -0.09270
C380        C  0.65654555  0.29590237  0.45116807     0.05400
C381        C  0.70211306  0.31885999  0.45297393    -0.08690
H382        H  0.72034029  0.42262804  0.45210678     0.10990
H383        H  0.59882749  0.30084061  0.44791407     0.08520
H384        H  0.71955837  0.30124884  0.45277010     0.08370
C385        C  0.50095316  0.48534446  0.06270556     0.44730
N386        N  0.52419327  0.02474843  0.99021026     0.03620
C387        C  0.87927079  0.41651658  0.79561661    -0.04250
H388        H  0.95558374  0.33772715  0.86134869     0.09120
C389        C  0.60298279  0.47094320  0.82297203    -0.04600
Co390      Co  0.93615239  0.46025959  0.92902349     0.74180
N391        N  0.95292707  0.39415999  0.88449209    -0.23780
Co392      Co  0.97141401  0.43491829  0.82585351     0.74070
C393        C  0.58350365  0.42382827  0.82004603     0.44840
N394        N  0.61163610  0.05711279  0.88530466     0.03240
N395        N  0.53271215  0.43873257  0.82438979     0.03350
N396        N  0.85827798  0.43459939  0.86388955    -0.44630
H397        H  0.93609966  0.42637309  0.03880552     0.09100
N398        N  0.93866899  0.40319126  0.92376624     0.03630
N399        N  0.98963908  0.47662835  0.76834373     0.03370
C400        C  0.49437006  0.99722708  0.69713275     0.44980
N401        N  0.59990173  0.06809850  0.92520053    -0.23240
C402        C  0.91191591  0.03028220  0.93684514    -0.04160
N403        N  0.54515146  0.03632167  0.03165733    -0.44340
N404        N  0.96958113  0.46628017  0.72644065    -0.44570
C405        C  0.93094969  0.07724464  0.93953705     0.44750
N406        N  0.89849487  0.44218013  0.86736547     0.03620
N407        N  0.55561266  0.10292326  0.86985913    -0.23260
N408        N  0.97450361  0.47820067  0.98963309    -0.23750
N409        N  0.56765927  0.09262231  0.82972650     0.03260
H410        H  0.55629311  0.16086865  0.89378941     0.09150
H411        H  0.55981284  0.06043570  0.71181811     0.09180
N412        N  0.91145396  0.43151526  0.82820454    -0.23800
N413        N  0.56894138  0.47708995  0.82556343    -0.23410
N414        N  0.98223856  0.06318167  0.93519147     0.03620
C415        C  0.93027932  0.34017211  0.93598185     0.45020
C416        C  0.63296858  0.08326876  0.95662145    -0.04670
N417        N  0.52841603  0.01282825  0.76740579    -0.23410
H418        H  0.63688677  0.49626854  0.82271648     0.09170
N419        N  0.92386262  0.37117003  0.95531679    -0.44640
H420        H  0.63366055  0.09633892  0.99177659     0.09150
C421        C  0.57787748  0.15659370  0.81780196     0.44850
C422        C  0.96530561  0.45696187  0.03110443    -0.04160
Co423      Co  0.53998913  0.06430975  0.93038301     0.73820
N424        N  0.65182277  0.06439791  0.88729291    -0.44350
C425        C  0.84450414  0.41930654  0.81932725     0.45120
N426        N  0.97456754  0.09581798  0.93860777    -0.44340
Co427      Co  0.57085865  0.03563914  0.82574499     0.73890
C428        C  0.53251862  0.02996336  0.72376293    -0.04670
C429        C  0.94886279  0.35486029  0.88887215    -0.04230
N430        N  0.94621665  0.02464970  0.93425140    -0.23760
N431        N  0.53995574  0.40582032  0.82080020    -0.44520
H432        H  0.87952483  0.40342811  0.76076090     0.09130
C433        C  0.56073037  0.14267672  0.86556878    -0.04650
Cl434      Cl  0.50818344  0.99936479  0.87939255    -0.47650
C435        C  0.66683212  0.08006127  0.93146301     0.44880
H436        H  0.87811371  0.00470251  0.93709162     0.09090
N437        N  0.58238264  0.12449903  0.79788395    -0.44360
C438        C  0.66539709  0.07705020  0.31902321     0.44730
N439        N  0.60067851  0.06467643  0.32995781     0.03620
C440        C  0.97969312  0.47706126  0.53454255    -0.04250
H441        H  0.51665178  0.37292639  0.43767330     0.09120
C442        C  0.93427372  0.38085984  0.29715998    -0.04600
Co443      Co  0.57248639  0.03682604  0.43076960     0.74180
N444        N  0.53473321  0.44079664  0.43515290    -0.23780
Co445      Co  0.97762389  0.44099267  0.43031158     0.74070
C446        C  0.93451694  0.34553259  0.32332996     0.44840
N447        N  0.99674758  0.49559449  0.26601412     0.03240
N448        N  0.95931863  0.40173393  0.36897594     0.03350
N449        N  0.54368417  0.04112892  0.53228188    -0.44630
H450        H  0.66968237  0.05564310  0.39517219     0.09100
N451        N  0.57269533  0.47746628  0.43636149     0.03630
N452        N  0.92032397  0.44286995  0.42304640     0.03370
C453        C  0.85556086  0.43079779  0.43158258     0.44980
N454        N  0.52070283  0.02373736  0.26728495    -0.23240
C455        C  0.59205971  0.13046331  0.45551605    -0.04160
N456        N  0.63287989  0.08049653  0.29859859    -0.44340
N457        N  0.88735307  0.42707579  0.45336342    -0.44570
C458        C  0.58966196  0.16463419  0.42967585     0.44750
N459        N  0.53274995  0.02045077  0.49060724     0.03620
N460        N  0.98254983  0.06417273  0.32496021    -0.23260
N461        N  0.61114645  0.05295551  0.37030639    -0.23750
N462        N  0.94442101  0.02768072  0.32407532     0.03260
H463        H  0.00125575  0.13219095  0.32219987     0.09150
H464        H  0.85360251  0.45340773  0.35528935     0.09180
N465        N  0.99754273  0.48196463  0.49102266    -0.23800
N466        N  0.95033127  0.41440202  0.32826534    -0.23410
N467        N  0.56444801  0.10808295  0.38489502     0.03620
C468        C  0.58856964  0.42729178  0.44074264     0.45020
C469        C  0.53738988  0.02763683  0.22342937    -0.04670
N470        N  0.91111730  0.45494643  0.38208943    -0.23410
H471        H  0.92093919  0.38027804  0.26218073     0.09170
N472        N  0.60593765  0.47085935  0.43983853    -0.44640
H473        H  0.56741361  0.05516310  0.21096002     0.09150
C474        C  0.92914533  0.07841282  0.31981217     0.44850
C475        C  0.65130861  0.05933533  0.36658152    -0.04160
Co476      Co  0.54318169  0.06676741  0.32552485     0.73820
N477        N  0.99007834  0.47963637  0.22176527    -0.44350
C478        C  0.51071092  0.01720617  0.56247869     0.45120
N479        N  0.57303503  0.14888285  0.38594874    -0.44340
Co480      Co  0.95291660  0.47429881  0.32372709     0.73890
C481        C  0.87087906  0.44864382  0.38430656    -0.04670
C482        C  0.54151373  0.40707448  0.43773470    -0.04230
N483        N  0.57562770  0.09663236  0.42495109    -0.23760
N484        N  0.94969068  0.36058676  0.36766508    -0.44520
H485        H  0.94933457  0.44929956  0.54591426     0.09130
C486        C  0.97614780  0.09813779  0.32242857    -0.04650
Cl487      Cl  0.50781952  0.00401927  0.37956993    -0.47650
C488        C  0.52541049  0.50766630  0.19645765     0.44880
H489        H  0.60619565  0.13169143  0.49018584     0.09090
N490        N  0.91140116  0.03472378  0.32076898    -0.44360
C491        C  0.48621906  0.99435240  0.64516579    -0.14160
C492        C  0.51460401  0.02415777  0.61467829    -0.29330
H493        H  0.45736886  0.46623975  0.63208462     0.14870
H494        H  0.95829744  0.96530369  0.62985811     0.15440
C495        C  0.49968619  0.47992481  0.11501968    -0.14160
C496        C  0.53001772  0.50976366  0.14402276    -0.29330
H497        H  0.55857809  0.03754380  0.12708945     0.14870
H498        H  0.55811755  0.53809629  0.12891915     0.15440
C499        C  0.61257171  0.21022185  0.44123817    -0.11000
C500        C  0.63276567  0.24911715  0.44745100    -0.12560
C501        C  0.81075693  0.40803368  0.44570957    -0.11000
C502        C  0.77196880  0.38824240  0.45180722    -0.12560
C503        C  0.61322168  0.40574642  0.44462688    -0.11000
C504        C  0.63361842  0.38731366  0.44769337    -0.12560
C505        C  0.60090129  0.20127958  0.80275090    -0.11000
C506        C  0.62102026  0.24019817  0.79678244    -0.12540
C507        C  0.76084016  0.37842072  0.79919524    -0.11000
C508        C  0.79960801  0.39762760  0.80547521    -0.12560
C509        C  0.62419700  0.37973262  0.80914541    -0.11000
C510        C  0.60561642  0.39983173  0.81430898    -0.12560
C511        C  0.88591881  0.12035919  0.31118017    -0.11000
C512        C  0.90513377  0.10071191  0.31520280    -0.12560
C513        C  0.91052014  0.29974161  0.31163964    -0.11000
C514        C  0.88974293  0.26063340  0.30614955    -0.12560
C515        C  0.71019748  0.10140489  0.30475254    -0.11000
C516        C  0.74914915  0.12197323  0.29966335    -0.12560
C517        C  0.88834292  0.11937931  0.94874805    -0.11000
C518        C  0.90811835  0.10046693  0.94448086    -0.12560
C519        C  0.90843050  0.29575064  0.95116745    -0.11000
C520        C  0.88884245  0.25705117  0.95780306    -0.12560
C521        C  0.75030414  0.11853183  0.95188057    -0.11000
C522        C  0.71170571  0.10016001  0.94480161    -0.12560
C523        C  0.79358005  0.64472794  0.95446859     0.05410
C524        C  0.81777508  0.69051313  0.95405601    -0.10740
C525        C  0.86335889  0.71244237  0.95165298     0.02910
C526        C  0.88463166  0.68845917  0.94958971    -0.09270
C527        C  0.86056697  0.64275252  0.94988414     0.05400
C528        C  0.81508249  0.62097559  0.95238002    -0.08690
H529        H  0.80118619  0.70895577  0.95469819     0.10990
H530        H  0.91978442  0.70531261  0.94706020     0.08520
H531        H  0.79642591  0.58561787  0.95196644     0.08370
C532        C  0.79951350  0.64180756  0.29761315     0.05410
C533        C  0.82166878  0.68737863  0.29524770    -0.10740
C534        C  0.86715425  0.71116227  0.29681163     0.02910
C535        C  0.89048976  0.68943932  0.30073497    -0.09270
C536        C  0.86833561  0.64387590  0.30313094     0.05400
C537        C  0.82281629  0.62000764  0.30153920    -0.08690
H538        H  0.80357371  0.70431258  0.29359854     0.10990
H539        H  0.92570797  0.70795250  0.30289397     0.08520
H540        H  0.80561957  0.58475377  0.30436530     0.08370
C541        C  0.72139004  0.85805447  0.80498675     0.05410
C542        C  0.69927390  0.88123137  0.80709089    -0.10740
C543        C  0.65373091  0.85880760  0.80927646     0.02910
C544        C  0.63027783  0.81311309  0.80924927    -0.09270
C545        C  0.65214126  0.78973392  0.80718948     0.05400
C546        C  0.69774819  0.81224791  0.80508873    -0.08690
H547        H  0.71747175  0.91659516  0.80775045     0.10990
H548        H  0.59509473  0.79577530  0.81155251     0.08520
H549        H  0.71477872  0.79423717  0.80444760     0.08370
C550        C  0.71814150  0.86223645  0.46282959     0.05410
C551        C  0.69561166  0.88480281  0.45899136    -0.10740
C552        C  0.65011967  0.86171966  0.45690557     0.02910
C553        C  0.62717021  0.81609362  0.45875013    -0.09270
C554        C  0.64975821  0.79357914  0.46261086     0.05400
C555        C  0.69524444  0.81663835  0.46465736    -0.08690
H556        H  0.71341589  0.92009118  0.45654694     0.10990
H557        H  0.59196702  0.79817583  0.45619284     0.08520
H558        H  0.71277864  0.79913191  0.46622509     0.08370
C559        C  0.52203978  0.00343942  0.06224154     0.44730
N560        N  0.51208088  0.51532094  0.99356576     0.03620
C561        C  0.88833930  0.92452657  0.79611009    -0.04250
H562        H  0.95805484  0.84233446  0.85337298     0.09120
C563        C  0.60749386  0.97265639  0.82039003    -0.04600
Co564      Co  0.94782594  0.96719540  0.92968449     0.74180
N565        N  0.96197396  0.90074880  0.88136163    -0.23780
Co566      Co  0.98163333  0.94322661  0.82316410     0.74070
C567        C  0.58871569  0.92558331  0.81984257     0.44840
N568        N  0.60612200  0.55330267  0.89157776     0.03240
N569        N  0.53725999  0.93958792  0.82464560     0.03350
N570        N  0.86799074  0.93955499  0.86668593    -0.44630
H571        H  0.95610265  0.94008123  0.04646772     0.09100
N572        N  0.94987316  0.90980028  0.92235418     0.03630
N573        N  0.00287031  0.98767654  0.76565447     0.03370
C574        C  0.49413796  0.49951707  0.69718563     0.44980
N575        N  0.59327505  0.56244126  0.93201088    -0.23240
C576        C  0.90194286  0.52542355  0.93517739    -0.04160
N577        N  0.52840622  0.52165602  0.03763456    -0.44340
N578        N  0.98675615  0.98162613  0.72150154    -0.44570
C579        C  0.92212604  0.57257185  0.93952166     0.44750
N580        N  0.90890541  0.94890242  0.86818507     0.03620
N581        N  0.55312124  0.60158544  0.87737037    -0.23260
N582        N  0.98855430  0.98762565  0.99071947    -0.23750
N583        N  0.56559094  0.59238795  0.83671060     0.03260
H584        H  0.55703984  0.66016466  0.90479155     0.09150
H585        H  0.55983815  0.56238042  0.71333760     0.09180
N586        N  0.92167131  0.94021898  0.82742871    -0.23800
N587        N  0.57312859  0.97824359  0.82348441    -0.23410
N588        N  0.97213977  0.55638061  0.93701394     0.03620
C589        C  0.93512869  0.84369883  0.92959378     0.45020
C590        C  0.62658593  0.57856407  0.96338164    -0.04670
N591        N  0.52704845  0.51456136  0.76872909    -0.23410
H592        H  0.64119741  0.99830968  0.81849562     0.09170
N593        N  0.93248472  0.87601186  0.95178321    -0.44640
H594        H  0.62698818  0.59190007  0.99829483     0.09150
C595        C  0.58055896  0.65851454  0.82896136     0.44850
C596        C  0.98371053  0.97040666  0.03469753    -0.04160
Co597      Co  0.53324416  0.55944186  0.93581066     0.73820
N598        N  0.64707444  0.56279973  0.89333361    -0.44350
C599        C  0.85310947  0.92478095  0.82223003     0.45120
N600        N  0.96558273  0.58975847  0.94053473    -0.44340
Co601      Co  0.56751656  0.53485031  0.82988471     0.73890
C602        C  0.53213280  0.53202272  0.72487510    -0.04670
C603        C  0.95414911  0.85976166  0.88284231    -0.04230
N604        N  0.93552253  0.51845646  0.93375785    -0.23760
N605        N  0.54512689  0.90699687  0.82242329    -0.44520
H606        H  0.88788629  0.91161701  0.76092872     0.09130
C607        C  0.56106685  0.64260041  0.87555489    -0.04650
Cl608      Cl  0.50264923  0.49730913  0.88007439    -0.47650
C609        C  0.66189151  0.57811902  0.93765539     0.44880
H610        H  0.86787798  0.50061104  0.93375125     0.09090
N611        N  0.58331512  0.62610159  0.80719393    -0.44360
C612        C  0.67055318  0.57816913  0.32413977     0.44730
N613        N  0.60785902  0.57005737  0.33614958     0.03620
C614        C  0.96343982  0.96086755  0.53081499    -0.04250
H615        H  0.51122695  0.87212388  0.44188031     0.09120
C616        C  0.92475919  0.87575812  0.29537005    -0.04600
Co617      Co  0.57616726  0.53762675  0.43416896     0.74180
N618        N  0.53011174  0.94003483  0.43603481    -0.23780
Co619      Co  0.96732714  0.93267059  0.42883296     0.74070
C620        C  0.92879098  0.84152473  0.31890113     0.44840
N621        N  0.98230016  0.98595881  0.26834502     0.03240
N622        N  0.94996959  0.89512527  0.36722771     0.03350
N623        N  0.54408548  0.53959531  0.53284954    -0.44630
H624        H  0.67334431  0.55375470  0.39927254     0.09100
N625        N  0.56831801  0.97639231  0.43487319     0.03630
N626        N  0.90980020  0.93404191  0.42363969     0.03370
C627        C  0.84705120  0.92554099  0.43640932     0.44980
N628        N  0.53319619  0.53301851  0.26991687    -0.23240
C629        C  0.59177961  0.62909414  0.46380410    -0.04160
N630        N  0.63955197  0.58429949  0.30439292    -0.44340
N631        N  0.87819443  0.91930823  0.45554345    -0.44570
C632        C  0.58800128  0.66324542  0.43970104     0.44750
N633        N  0.53432565  0.51896718  0.49130040     0.03620
N634        N  0.99307651  0.57110671  0.32547344    -0.23260
N635        N  0.61708073  0.55639698  0.37582082    -0.23750
N636        N  0.95557169  0.53406814  0.32226066     0.03260
H637        H  0.00991038  0.63864920  0.32470609     0.09150
H638        H  0.84388417  0.95073528  0.36184189     0.09180
N639        N  0.98456322  0.97089951  0.48934509    -0.23800
N640        N  0.93879371  0.90776455  0.32813103    -0.23410
N641        N  0.56768126  0.60961271  0.39158785     0.03620
C642        C  0.58337976  0.92574427  0.44048318     0.45020
C643        C  0.55407674  0.54279183  0.22827130    -0.04670
N644        N  0.90038266  0.94815585  0.38443832    -0.23410
H645        H  0.91170717  0.87581920  0.26042084     0.09170
N646        N  0.60129522  0.96932060  0.43767285    -0.44640
H647        H  0.58411384  0.57255154  0.22046027     0.09150
C648        C  0.93851355  0.58337907  0.31904481     0.44850
C649        C  0.65624710  0.56040787  0.37162761    -0.04160
Co650      Co  0.55053038  0.57162171  0.33025284     0.73820
N651        N  0.97225728  0.96512030  0.22692796    -0.44350
C652        C  0.51068046  0.51574767  0.56217166     0.45120
N653        N  0.57377689  0.64940419  0.39486794    -0.44340
Co654      Co  0.94087054  0.96727198  0.32577678     0.73890
C655        C  0.86117045  0.94393725  0.38912542    -0.04670
C656        C  0.53638239  0.90607145  0.43964934    -0.04230
N657        N  0.57828604  0.59706466  0.43114296    -0.23760
N658        N  0.94369738  0.85529357  0.36356032    -0.44520
H659        H  0.93339846  0.93102872  0.53838292     0.09130
C660        C  0.98554171  0.60435250  0.32358871    -0.04650
Cl661      Cl  0.51371678  0.50611627  0.37951191    -0.47650
C662        C  0.50482325  0.98879237  0.19736697     0.44880
H663        H  0.60427261  0.62907300  0.49909505     0.09090
N664        N  0.92191302  0.53994100  0.31824817    -0.44360
C665        C  0.48596942  0.49558146  0.64517223    -0.14160
C666        C  0.51431708  0.52418136  0.61412495    -0.29330
H667        H  0.45768972  0.96522321  0.63164448     0.14870
H668        H  0.04360673  0.55297848  0.62731155     0.15440
C669        C  0.52992021  0.00812891  0.11429070    -0.14160
C670        C  0.50114740  0.97984361  0.14553613    -0.29330
H671        H  0.47163545  0.45154195  0.13011798     0.14870
H672        H  0.47215612  0.95075345  0.13273647     0.15440
C673        C  0.60804754  0.70804326  0.45377386    -0.11000
C674        C  0.62652513  0.74681899  0.46030761    -0.12560
C675        C  0.80312185  0.90455631  0.45265374    -0.11000
C676        C  0.76469895  0.88560289  0.46023634    -0.12560
C677        C  0.60737081  0.90373566  0.44612004    -0.11000
C678        C  0.62702687  0.88475826  0.45116152    -0.12560
C679        C  0.60601071  0.70382421  0.81615521    -0.11000
C680        C  0.62760082  0.74274627  0.81012317    -0.12540
C681        C  0.76836523  0.88141636  0.80577501    -0.11000
C682        C  0.80747434  0.90144291  0.81035613    -0.12560
C683        C  0.63098194  0.88257384  0.81277755    -0.11000
C684        C  0.61160012  0.90210202  0.81601867    -0.12560
C685        C  0.89243423  0.62186154  0.30880351    -0.11000
C686        C  0.91334105  0.60416716  0.31367883    -0.12560
C687        C  0.90827797  0.79670723  0.30484156    -0.11000
C688        C  0.88976278  0.75790637  0.29857358    -0.12560
C689        C  0.71452984  0.59881023  0.30807244    -0.11000
C690        C  0.75295848  0.61780538  0.30047924    -0.12560
C691        C  0.88246294  0.61814603  0.94642415    -0.11000
C692        C  0.90061043  0.59739983  0.94325250    -0.12560
C693        C  0.90995423  0.79834532  0.94237521    -0.11000
C694        C  0.88837354  0.75942272  0.94848858    -0.12560
C695        C  0.74663020  0.62186099  0.95394600    -0.11000
C696        C  0.70751770  0.60180481  0.94949870    -0.12560
loop_ 
_geom_bond_atom_site_label_1 
_geom_bond_atom_site_label_2 
_geom_bond_distance 
_geom_bond_site_symmetry_2 
_ccdc_geom_bond_type 
C1            C2   1.399       .  A
C1            C6   1.399       .  A
C1          C173   1.433       .  S
C2            C3   1.399       .  A
C2            H7   1.085       .  S
C3            C4   1.400       .  A
C3          C172   1.435       .  S
C4            C5   1.400       .  A
C4            H8   1.084       .  S
C5            C6   1.399       .  A
C5          C169   1.437       .  S
C6            H9   1.085       .  S
C10          C11   1.404       .  A
C10          C15   1.403       .  A
C10         C168   1.444       .  S
C11          C12   1.404       .  A
C11          H16   1.085       .  S
C12          C13   1.401       .  A
C12         C166   1.443       .  S
C13          C14   1.401       .  A
C13          H17   1.084       .  S
C14          C15   1.402       .  A
C14         C163   1.443       .  S
C15          H18   1.084       .  S
C19          C20   1.401       .  A
C19          C24   1.400       .  A
C19         C159   1.435       .  S
C20          C21   1.401       .  A
C20          H25   1.084       .  S
C21          C22   1.399       .  A
C21         C161   1.437       .  S
C22          C23   1.399       .  A
C22          H26   1.084       .  S
C23          C24   1.399       .  A
C23         C158   1.434       .  S
C24          H27   1.085       .  S
C28          C29   1.402       .  A
C28          C33   1.404       .  A
C28         C154   1.443       .  S
C29          C30   1.401       .  A
C29          H34   1.084       .  S
C30          C31   1.402       .  A
C30         C156   1.443       .  S
C31          C32   1.403       .  A
C31          H35   1.084       .  S
C32          C33   1.404       .  A
C32         C152   1.445       .  S
C33          H36   1.085       .  S
C37         C147   1.474   1_455  S
C37         N229   1.359       .  A
C37         C422   1.445   1_455  S
N38          N55   1.320   1_556  A
N38         N582   1.320   1_445  A
N38         Co75   2.059       .  S
C39          H84   1.082       .  S
C39          N64   1.342       .  A
C39          C77   1.456       .  S
H40          C81   1.082       .  S
C41          H70   1.081       .  S
C41          N65   1.340       .  A
C41          C45   1.452       .  S
Co42         N60   2.057       .  S
Co42         N50   2.085       .  S
Co42         N58   2.068       .  S
Co42        N256   2.085       .  S
Co42       Cl608   2.446       .  S
N43          C81   1.337       .  A
N43          N50   1.318       .  A
N43         Co44   2.068       .  S
Co44         N64   2.081       .  S
Co44         N51   2.060       .  S
Co44        N395   2.085       .  S
Co44       Cl608   2.448       .  S
C45         C162   1.433       .  S
C45          N83   1.348       .  A
N46          N53   1.318       .  A
N46          N76   1.322       .  A
N46         Co79   2.068       .  S
N47          N65   1.320       .  A
N47          N83   1.325       .  A
N47        Co392   2.087   1_455  S
N48          C77   1.345       .  A
N48          N58   1.322       .  A
H49          C74   1.081       .  S
N50          N71   1.325       .  A
N51          N56   1.320       .  A
N51         N591   1.320       .  A
C52         C143   1.474       .  S
C52         N578   1.360   1_445  A
C52          C80   1.444       .  S
N53          C68   1.341       .  A
N53         Co75   2.079       .  S
C54          H88   1.081       .  S
C54          N82   1.341       .  A
C54          C57   1.454       .  S
N55         C211   1.341       .  A
N56         C574   1.341       .  A
C57         C170   1.433       .  S
C57          N78   1.346       .  A
N58          N64   1.318       .  A
N59          C85   1.337       .  A
N59          N61   1.318       .  A
N59         Co75   2.069       .  S
N60          C74   1.334   1_556  A
N60         N560   1.320       .  A
N61          N89   1.325       .  A
N61         Co79   2.082       .  S
H62          C85   1.082       .  S
H63          C80   1.081       .  S
N65        Co253   2.077       .  S
N66          N78   1.324       .  A
N66          N82   1.320       .  A
N66        Co423   2.080       .  S
C67         C171   1.430       .  S
C67          N71   1.349       .  A
C67          C81   1.452       .  S
C68          H72   1.082       .  S
C68          C87   1.455       .  S
N69          C80   1.334       .  A
N69         N573   1.320   1_545  A
N69         Co79   2.055       .  S
C73         C157   1.429       .  S
C73          N89   1.348       .  A
C73          C85   1.452       .  S
C74         C385   1.445       .  S
Co75        N414   2.084   1_455  S
Co75        Cl86   2.447       .  S
N76          C87   1.345       .  A
C77         C160   1.430       .  S
Co79        N239   2.085   1_545  S
Co79        Cl86   2.445       .  S
N82        Co216   2.084   1_545  S
Cl86       Co564   2.452   1_445  S
Cl86       Co566   2.454   1_445  S
C87         C174   1.428       .  S
C90         C167   1.440       .  S
C90         N108   1.351       .  A
C90         C127   1.453       .  S
N91         N108   1.327       .  A
N91         N113   1.323       .  A
N91        Co128   2.094       .  S
C92         H137   1.081       .  S
C92         N117   1.347       .  A
C92         C652   1.473       .  S
H93         C134   1.081       .  S
C94         H123   1.082       .  S
C94         N118   1.343       .  A
C94          C98   1.460       .  S
Co95        N113   2.089       .  S
Co95        N135   2.092       .  S
Co95        N111   2.114       .  S
Co95        N277   2.084   1_545  S
Co95       Cl139   2.454   1_545  S
N96         C134   1.341       .  A
N96         N103   1.321       .  A
N96        Co445   2.083   1_455  S
Co97        N100   2.091       .  S
Co97        N117   2.109       .  S
Co97        N104   2.091       .  S
Co97        N444   2.085       .  S
Co97       Cl661   2.453       .  S
C98         C165   1.439       .  S
C98         N136   1.347       .  A
N99         N129   1.330       .  A
N99         N628   1.320       .  A
N99        Co132   2.112       .  S
N100        N118   1.323       .  A
N100        N136   1.324       .  A
N101        C130   1.360   1_445  A
N101        N111   1.330       .  A
H102        C127   1.082       .  S
N103        N124   1.326       .  A
N103       Co269   2.090       .  S
N104        N122   1.322       .  A
N104        N109   1.327       .  A
C105        C153   1.439       .  S
C105        N109   1.351       .  A
C105        C133   1.454       .  S
N106        C121   1.348       .  A
N106        N621   1.320   1_445  A
N106       Co128   2.111       .  S
C107        H141   1.082       .  S
C107        N135   1.344       .  A
C107        C110   1.461       .  S
C110        C151   1.440       .  S
C110        N131   1.347       .  A
N111        N639   1.319   1_445  A
N112        C138   1.343       .  A
N112        N114   1.321       .  A
N112       Co476   2.090       .  S
N113        C127   1.339       .  A
N114        N142   1.325       .  A
N114       Co306   2.084   1_545  S
H115        C138   1.081       .  S
H116        C133   1.082       .  S
N117        N633   1.320       .  A
N118       Co132   2.090       .  S
N119        N131   1.324       .  A
N119        N135   1.323       .  A
N119       Co128   2.091       .  S
C120        C155   1.439       .  S
C120        N124   1.349       .  A
C120        C134   1.454       .  S
C121        H125   1.081       .  S
C121        C314   1.474   1_545  S
N122        C133   1.339       .  A
N122       Co132   2.089       .  S
C126        C164   1.439       .  S
C126        N142   1.347       .  A
C126        C138   1.457       .  S
Co128       N460   2.085   1_455  S
Co128      Cl139   2.453   1_545  S
N129        C488   1.359       .  A
C130        C144   1.474       .  S
C130        C614   1.444       .  S
Co132       N288   2.084       .  S
Co132      Cl661   2.453       .  S
Cl139      Co619   2.446   1_455  S
Cl139      Co654   2.447   1_455  S
C140        C148   1.475       .  S
C140        N477   1.359   1_455  A
C140        C295   1.445       .  S
C143        C144   1.332   1_445  D
C143        H319   1.086       .  S
C144        H494   1.086       .  S
H145        C317   1.086       .  S
H146        C492   1.085       .  S
C147        C148   1.334   1_655  D
C147        H323   1.086       .  S
C148        H150   1.086       .  S
H149        C321   1.086       .  S
C151        C152   1.209       .  T
C153        C154   1.208       .  T
C155        C156   1.208       .  T
C157        C158   1.202       .  T
C159        C160   1.203       .  T
C161        C162   1.204       .  T
C163        C164   1.208       .  T
C165        C166   1.208       .  T
C167        C168   1.208       .  T
C169        C170   1.204       .  T
C171        C172   1.203       .  T
C173        C174   1.202       .  T
C175        C176   1.404       .  A
C175        C180   1.404       .  A
C175        C347   1.445       .  S
C176        C177   1.404       .  A
C176        H181   1.085       .  S
C177        C178   1.401       .  A
C177        C346   1.442       .  S
C178        C179   1.401       .  A
C178        H182   1.084       .  S
C179        C180   1.403       .  A
C179        C343   1.444       .  S
C180        H183   1.084       .  S
C184        C185   1.400       .  A
C184        C189   1.399       .  A
C184        C342   1.433       .  S
C185        C186   1.400       .  A
C185        H190   1.085       .  S
C186        C187   1.400       .  A
C186        C340   1.436       .  S
C187        C188   1.400       .  A
C187        H191   1.084       .  S
C188        C189   1.399       .  A
C188        C337   1.436       .  S
C189        H192   1.085       .  S
C193        C194   1.401       .  A
C193        C198   1.402       .  A
C193        C333   1.439       .  S
C194        C195   1.400       .  A
C194        H199   1.084       .  S
C195        C196   1.401       .  A
C195        C335   1.440       .  S
C196        C197   1.402       .  A
C196        H200   1.084       .  S
C197        C198   1.402       .  A
C197        C332   1.440       .  S
C198        H201   1.085       .  S
C202        C203   1.402       .  A
C202        C207   1.401       .  A
C202        C328   1.439       .  S
C203        C204   1.402       .  A
C203        H208   1.084       .  S
C204        C205   1.400       .  A
C204        C330   1.440       .  S
C205        C206   1.400       .  A
C205        H209   1.084       .  S
C206        C207   1.401       .  A
C206        C326   1.438       .  S
C207        H210   1.085       .  S
C211        C321   1.475       .  S
C211        C596   1.474   1_445  S
N212        N229   1.330   1_556  A
N212        N408   1.320   1_455  A
N212       Co249   2.111       .  S
C213        H258   1.082       .  S
C213        N238   1.342       .  A
C213        C251   1.457       .  S
H214        C255   1.082       .  S
C215        H244   1.081   1_565  S
C215        N239   1.342       .  A
C215        C219   1.455       .  S
Co216       N234   2.090       .  S
Co216       N224   2.091       .  S
Co216       N232   2.081       .  S
Co216      Cl434   2.456       .  S
N217        C255   1.338       .  A
N217        N224   1.321       .  A
N217       Co218   2.080       .  S
Co218       N569   2.089       .  S
Co218       N238   2.085       .  S
Co218       N225   2.084       .  S
Co218      Cl434   2.444       .  S
C219        C336   1.436       .  S
C219        N257   1.347       .  A
N220        N227   1.322       .  A
N220        N250   1.324       .  A
N220       Co253   2.089       .  S
N221        N239   1.321       .  A
N221        N257   1.325       .  A
N221       Co566   2.085   1_455  S
N222        C251   1.346       .  A
N222        N232   1.323       .  A
H223        C248   1.081       .  S
N224        N245   1.327       .  A
N225        N417   1.320   1_565  A
N225        N230   1.324       .  A
C226        C317   1.475       .  S
C226        N404   1.342       .  A
C226        C254   1.472   1_655  S
N227        C242   1.345       .  A
N227       Co249   2.094       .  S
C228        H262   1.081       .  S
C228        N256   1.342       .  A
C228        C231   1.455       .  S
N230        C400   1.348       .  A
C231        C344   1.440       .  S
C231        N252   1.349       .  A
N232        N238   1.321       .  A
N233        C259   1.339       .  A
N233        N235   1.322       .  A
N233       Co249   2.088       .  S
N234        C248   1.343   1_556  A
N234        N386   1.320   1_565  A
N235        N263   1.326       .  A
N235       Co253   2.087       .  S
H236        C259   1.082       .  S
H237        C254   1.081       .  S
N240        N252   1.327       .  A
N240        N256   1.321       .  A
N240       Co597   2.092       .  S
C241        C345   1.438       .  S
C241        N245   1.351       .  A
C241        C255   1.453       .  S
C242        H246   1.082       .  S
C242        C261   1.462       .  S
N243        C254   1.347       .  A
N243        N399   1.320   1_455  A
N243       Co253   2.106       .  S
C247        C331   1.436       .  S
C247        N263   1.350       .  A
C247        C259   1.454       .  S
C248        C559   1.466   1_565  S
Co249       N588   2.089   1_455  S
Co249      Cl260   2.455       .  S
N250        C261   1.346       .  A
C251        C334   1.434       .  S
Co253      Cl260   2.452       .  S
Cl260      Co390   2.446   1_455  S
Cl260      Co392   2.447   1_455  S
C261        C348   1.440       .  S
C264        C341   1.428       .  S
C264        N282   1.347       .  A
C264        C301   1.452       .  S
N265        N282   1.324       .  A
N265        N287   1.319       .  A
N265       Co302   2.080       .  S
C266        H311   1.081       .  S
C266        N291   1.341       .  A
C266        C478   1.463   1_565  S
H267        C308   1.081       .  S
C268        H297   1.081       .  S
C268        N292   1.341       .  A
C268        C272   1.455       .  S
Co269       N287   2.069       .  S
Co269       N309   2.085       .  S
Co269       N285   2.063       .  S
Co269      Cl313   2.447       .  S
N270        C308   1.342       .  A
N270        N277   1.321       .  A
N270       Co619   2.086   1_455  S
Co271       N618   2.081       .  S
Co271       N274   2.078       .  S
Co271       N291   2.083       .  S
Co271       N278   2.088       .  S
Co271      Cl487   2.456   1_565  S
C272        C339   1.431       .  S
C272        N310   1.346       .  A
N273        N454   1.320   1_565  A
N273        N303   1.323       .  A
N273       Co306   2.078       .  S
N274        N292   1.320       .  A
N274        N310   1.323       .  A
N275        C304   1.342       .  A
N275        N285   1.321       .  A
H276        C301   1.082       .  S
N277        N298   1.325       .  A
N278        N296   1.320       .  A
N278        N283   1.326       .  A
C279        C327   1.434       .  S
C279        N283   1.351       .  A
C279        C307   1.452       .  S
N280        C295   1.334       .  A
N280        N447   1.320   1_455  A
N280       Co302   2.060       .  S
C281        H315   1.081       .  S
C281        N309   1.342       .  A
C281        C284   1.457       .  S
C284        C325   1.433       .  S
C284        N305   1.346       .  A
N285        N465   1.320   1_455  A
N286        C312   1.340       .  A
N286        N288   1.321       .  A
N286       Co650   2.079       .  S
N287        C301   1.337       .  A
N288        N316   1.325       .  A
H289        C312   1.081       .  S
H290        C307   1.082       .  S
N291        N459   1.319   1_565  A
N292       Co306   2.081       .  S
N293        N305   1.322       .  A
N293        N309   1.319       .  A
N293       Co302   2.071       .  S
C294        C329   1.436       .  S
C294        N298   1.347       .  A
C294        C308   1.456       .  S
C295        H299   1.081       .  S
N296        C307   1.337       .  A
N296       Co306   2.076       .  S
C300        C338   1.432       .  S
C300        N316   1.347       .  A
C300        C312   1.453       .  S
Co302       N634   2.082   1_455  S
Co302      Cl313   2.445       .  S
N303        C662   1.347       .  A
C304        C318   1.475       .  S
C304        C440   1.472   1_455  S
Co306      Cl487   2.443   1_565  S
Cl313      Co445   2.453   1_455  S
Cl313      Co480   2.453   1_455  S
C314        C322   1.475       .  S
C314        N651   1.341   1_455  A
C317        C318   1.335   1_655  D
C318        H668   1.085       .  S
H320        C666   1.086       .  S
C321        C322   1.334   1_545  D
C322        H324   1.086   1_455  S
C325        C326   1.204       .  T
C327        C328   1.205       .  T
C329        C330   1.206       .  T
C331        C332   1.206       .  T
C333        C334   1.205       .  T
C335        C336   1.206       .  T
C337        C338   1.203       .  T
C339        C340   1.203       .  T
C341        C342   1.201       .  T
C343        C344   1.208       .  T
C345        C346   1.207       .  T
C347        C348   1.209       .  T
C349        C350   1.400       .  A
C349        C354   1.400       .  A
C349        C521   1.435       .  S
C350        C351   1.399       .  A
C350        H355   1.085       .  S
C351        C352   1.399       .  A
C351        C520   1.434       .  S
C352        C353   1.399       .  A
C352        H356   1.084       .  S
C353        C354   1.401       .  A
C353        C517   1.436       .  S
C354        H357   1.084       .  S
C358        C359   1.404       .  A
C358        C363   1.402       .  A
C358        C516   1.443       .  S
C359        C360   1.404       .  A
C359        H364   1.085       .  S
C360        C361   1.403       .  A
C360        C514   1.444       .  S
C361        C362   1.402       .  A
C361        H365   1.084       .  S
C362        C363   1.401       .  A
C362        C511   1.443       .  S
C363        H366   1.084       .  S
C367        C368   1.400       .  A
C367        C372   1.401       .  A
C367        C507   1.437       .  S
C368        C369   1.400       .  A
C368        H373   1.085       .  S
C369        C370   1.402       .  A
C369        C509   1.440       .  S
C370        C371   1.402       .  A
C370        H374   1.084       .  S
C371        C372   1.401       .  A
C371        C506   1.440       .  S
C372        H375   1.085       .  S
C376        C377   1.402       .  A
C376        C381   1.402       .  A
C376        C502   1.440       .  S
C377        C378   1.401       .  A
C377        H382   1.084       .  S
C378        C379   1.399       .  A
C378        C504   1.439       .  S
C379        C380   1.399       .  A
C379        H383   1.085       .  S
C380        C381   1.402       .  A
C380        C500   1.438       .  S
C381        H384   1.085       .  S
C385        C495   1.474       .  S
C385        N577   1.359       .  A
N386        N403   1.323   1_556  A
N386       Co423   2.077       .  S
C387        H432   1.082       .  S
C387        N412   1.342       .  A
C387        C425   1.457       .  S
H388        C429   1.082       .  S
C389        H418   1.081       .  S
C389        N413   1.342       .  A
C389        C393   1.455       .  S
Co390       N408   2.059       .  S
Co390       N398   2.083       .  S
Co390       N604   2.087       .  S
Co390       N406   2.071       .  S
N391        C429   1.337       .  A
N391        N398   1.319       .  A
N391       Co392   2.069       .  S
Co392       N412   2.083       .  S
Co392       N399   2.063       .  S
C393        C510   1.436       .  S
C393        N431   1.347       .  A
N394        N401   1.320       .  A
N394        N424   1.323       .  A
N394       Co427   2.078       .  S
N395        N413   1.320       .  A
N395        N431   1.325       .  A
N396        C425   1.346       .  A
N396        N406   1.322       .  A
H397        C422   1.081       .  S
N398        N419   1.325       .  A
N399        N404   1.321       .  A
C400        C491   1.474       .  S
C400        C428   1.463   1_565  S
N401        C416   1.341       .  A
N401       Co423   2.079       .  S
C402        H436   1.081       .  S
C402        N430   1.340       .  A
C402        C405   1.451       .  S
N403        C559   1.346       .  A
C405        C518   1.432       .  S
C405        N426   1.348       .  A
N406        N412   1.319       .  A
N407        C433   1.337       .  A
N407        N409   1.320       .  A
N407       Co423   2.076       .  S
N408        C422   1.334   1_556  A
N409        N437   1.327       .  A
N409       Co427   2.091       .  S
H410        C433   1.082       .  S
H411        C428   1.081       .  S
N413       Co601   2.085       .  S
N414        N426   1.325       .  A
N414        N430   1.320       .  A
C415        C519   1.429       .  S
C415        N419   1.348       .  A
C415        C429   1.452       .  S
C416        H420   1.082       .  S
C416        C435   1.455       .  S
N417        C428   1.341       .  A
N417       Co427   2.083       .  S
C421        C505   1.436       .  S
C421        N437   1.351       .  A
C421        C433   1.452       .  S
Co423      Cl434   2.443   1_545  S
N424        C435   1.346       .  A
C425        C508   1.432       .  S
Co427       N587   2.086   1_545  S
Co427      Cl434   2.456   1_545  S
N430       Co564   2.078   1_545  S
C435        C522   1.430       .  S
C438        C515   1.438       .  S
C438        N456   1.352       .  A
C438        C475   1.452       .  S
N439        N456   1.327       .  A
N439        N461   1.321       .  A
N439       Co476   2.094       .  S
C440        H485   1.081       .  S
C440        N465   1.347       .  A
H441        C482   1.081       .  S
C442        H471   1.082       .  S
C442        N466   1.344       .  A
C442        C446   1.460       .  S
Co443       N461   2.078       .  S
Co443       N625   2.083   1_545  S
Co443       N483   2.081       .  S
Co443       N459   2.083       .  S
Co443      Cl487   2.442       .  S
N444        C482   1.342       .  A
N444        N451   1.320       .  A
Co445       N448   2.091       .  S
Co445       N465   2.107       .  S
Co445       N452   2.089       .  S
C446        C513   1.440       .  S
C446        N484   1.347       .  A
N447        N477   1.330       .  A
N447       Co480   2.110       .  S
N448        N466   1.322       .  A
N448        N484   1.324       .  A
N449        C478   1.349       .  A
N449        N459   1.324       .  A
H450        C475   1.082       .  S
N451        N472   1.325       .  A
N451       Co617   2.082       .  S
N452        N470   1.322       .  A
N452        N457   1.327       .  A
C453        C501   1.436       .  S
C453        N457   1.350       .  A
C453        C481   1.452       .  S
N454        C469   1.343       .  A
N454       Co476   2.091       .  S
C455        H489   1.082       .  S
C455        N483   1.341       .  A
C455        C458   1.455       .  S
C458        C499   1.433       .  S
C458        N479   1.347       .  A
N460        C486   1.341       .  A
N460        N462   1.321       .  A
N461        C475   1.337       .  A
N462        N490   1.327       .  A
N462       Co654   2.089   1_545  S
H463        C486   1.081   1_455  S
H464        C481   1.082       .  S
N466       Co480   2.091       .  S
N467        N479   1.323       .  A
N467        N483   1.321       .  A
N467       Co476   2.083       .  S
C468        C503   1.435       .  S
C468        N472   1.347       .  A
C468        C482   1.455       .  S
C469        H473   1.081       .  S
C469        C662   1.466   1_545  S
N470        C481   1.338       .  A
N470       Co480   2.086       .  S
C474        C512   1.439       .  S
C474        N490   1.349       .  A
C474        C486   1.454       .  S
Co476      Cl487   2.457       .  S
C478        C492   1.474       .  S
Co480       N636   2.081       .  S
C488        C496   1.474       .  S
C488        C643   1.445       .  S
C491        C492   1.342   1_565  D
C491        H667   1.085       .  S
H493        C665   1.086       .  S
C495        C496   1.333       .  D
C495        H671   1.086       .  S
C496        H498   1.086       .  S
H497        C669   1.085       .  S
C499        C500   1.204       .  T
C501        C502   1.206       .  T
C503        C504   1.205       .  T
C505        C506   1.206       .  T
C507        C508   1.204       .  T
C509        C510   1.206       .  T
C511        C512   1.208       .  T
C513        C514   1.208       .  T
C515        C516   1.207       .  T
C517        C518   1.204       .  T
C519        C520   1.202       .  T
C521        C522   1.203       .  T
C523        C524   1.404       .  A
C523        C528   1.402       .  A
C523        C695   1.444       .  S
C524        C525   1.404       .  A
C524        H529   1.085       .  S
C525        C526   1.403       .  A
C525        C694   1.444       .  S
C526        C527   1.402       .  A
C526        H530   1.084       .  S
C527        C528   1.402       .  A
C527        C691   1.443       .  S
C528        H531   1.084       .  S
C532        C533   1.400       .  A
C532        C537   1.400       .  A
C532        C690   1.434       .  S
C533        C534   1.399       .  A
C533        H538   1.085       .  S
C534        C535   1.399       .  A
C534        C688   1.434       .  S
C535        C536   1.399       .  A
C535        H539   1.084       .  S
C536        C537   1.400       .  A
C536        C685   1.436       .  S
C537        H540   1.084       .  S
C541        C542   1.403       .  A
C541        C546   1.405       .  A
C541        C681   1.445       .  S
C542        C543   1.402       .  A
C542        H547   1.084       .  S
C543        C544   1.401       .  A
C543        C683   1.443       .  S
C544        C545   1.402       .  A
C544        H548   1.084       .  S
C545        C546   1.404       .  A
C545        C680   1.444       .  S
C546        H549   1.085       .  S
C550        C551   1.400       .  A
C550        C555   1.399       .  A
C550        C676   1.434       .  S
C551        C552   1.400       .  A
C551        H556   1.084       .  S
C552        C553   1.400       .  A
C552        C678   1.437       .  S
C553        C554   1.400       .  A
C553        H557   1.084       .  S
C554        C555   1.399       .  A
C554        C674   1.435       .  S
C555        H558   1.085       .  S
C559        C669   1.474       .  S
N560        N577   1.330   1_556  A
N560       Co597   2.113       .  S
C561        H606   1.082       .  S
C561        N586   1.345       .  A
C561        C599   1.461       .  S
H562        C603   1.082       .  S
C563        H592   1.081       .  S
C563        N587   1.342       .  A
C563        C567   1.455       .  S
Co564       N582   2.110       .  S
Co564       N572   2.090       .  S
Co564       N580   2.090       .  S
N565        C603   1.340       .  A
N565        N572   1.323       .  A
N565       Co566   2.091       .  S
Co566       N586   2.092       .  S
Co566       N573   2.114   1_655  S
C567        C684   1.439       .  S
C567        N605   1.349       .  A
N568        N575   1.323       .  A
N568        N598   1.323       .  A
N568       Co601   2.088       .  S
N569        N587   1.321       .  A
N569        N605   1.326       .  A
N570        C599   1.346       .  A
N570        N580   1.323       .  A
H571        C596   1.081       .  S
N572        N593   1.327       .  A
N573        N578   1.330   1_455  A
C574        C665   1.475       .  S
C574        C602   1.473       .  S
N575        C590   1.344       .  A
N575       Co597   2.094       .  S
C576        H610   1.081       .  S
C576        N604   1.342       .  A
C576        C579   1.456       .  S
C579        C692   1.439       .  S
C579        N600   1.348       .  A
N580        N586   1.322       .  A
N581        C607   1.339       .  A
N581        N583   1.323       .  A
N581       Co597   2.090       .  S
N582        C596   1.348   1_556  A
N583        N611   1.327       .  A
N583       Co601   2.092       .  S
H584        C607   1.082       .  S
H585        C602   1.081       .  S
N588        N600   1.326       .  A
N588        N604   1.321       .  A
C589        C693   1.440       .  S
C589        N593   1.351       .  A
C589        C603   1.455       .  S
C590        H594   1.082       .  S
C590        C609   1.461       .  S
N591        C602   1.347       .  A
N591       Co601   2.108       .  S
C595        C679   1.439       .  S
C595        N611   1.350       .  A
C595        C607   1.454       .  S
Co597      Cl608   2.455       .  S
N598        C609   1.346       .  A
C599        C682   1.440       .  S
Co601      Cl608   2.452       .  S
C609        C696   1.439       .  S
C612        C689   1.429       .  S
C612        N630   1.348       .  A
C612        C649   1.452       .  S
N613        N630   1.325       .  A
N613        N635   1.318       .  A
N613       Co650   2.081       .  S
C614        H659   1.081       .  S
C614        N639   1.334       .  A
H615        C656   1.081       .  S
C616        H645   1.081       .  S
C616        N640   1.341       .  A
C616        C620   1.456       .  S
Co617       N635   2.069       .  S
Co617       N657   2.080       .  S
Co617       N633   2.060       .  S
Co617      Cl661   2.446       .  S
N618        C656   1.340       .  A
N618        N625   1.320       .  A
Co619       N622   2.068       .  S
Co619       N639   2.055       .  S
Co619       N626   2.083       .  S
C620        C687   1.429       .  S
C620        N658   1.345       .  A
N621        N651   1.320       .  A
N621       Co654   2.059       .  S
N622        N640   1.318       .  A
N622        N658   1.322       .  A
N623        C652   1.341       .  A
N623        N633   1.320       .  A
H624        C649   1.082       .  S
N625        N646   1.325       .  A
N626        N644   1.319       .  A
N626        N631   1.325       .  A
C627        C675   1.429       .  S
C627        N631   1.348       .  A
C627        C655   1.452       .  S
N628        C643   1.334       .  A
N628       Co650   2.058       .  S
C629        H663   1.081       .  S
C629        N657   1.341       .  A
C629        C632   1.456       .  S
C632        C673   1.430       .  S
C632        N653   1.345       .  A
N634        C660   1.341       .  A
N634        N636   1.320       .  A
N635        C649   1.337       .  A
N636        N664   1.324       .  A
H637        C660   1.081   1_455  S
H638        C655   1.082       .  S
N640       Co654   2.083       .  S
N641        N653   1.322       .  A
N641        N657   1.318       .  A
N641       Co650   2.070       .  S
C642        C677   1.433       .  S
C642        N646   1.347       .  A
C642        C656   1.453       .  S
C643        H647   1.081       .  S
N644        C655   1.337       .  A
N644       Co654   2.067       .  S
C648        C686   1.432       .  S
C648        N664   1.346       .  A
C648        C660   1.455       .  S
Co650      Cl661   2.446       .  S
C652        C666   1.475       .  S
C662        C670   1.474       .  S
C665        C666   1.334       .  D
C669        C670   1.340   1_545  D
C670        H672   1.085       .  S
C673        C674   1.203       .  T
C675        C676   1.202       .  T
C677        C678   1.204       .  T
C679        C680   1.208       .  T
C681        C682   1.208       .  T
C683        C684   1.208       .  T
C685        C686   1.204       .  T
C687        C688   1.202       .  T
C689        C690   1.202       .  T
C691        C692   1.208       .  T
C693        C694   1.208       .  T
C695        C696   1.208       .  T
