geometry optimzed in LAMMPS
_audit_creation_date              2020-12-01 
_audit_creation_method            'lammps2cif' 
_symmetry_space_group_name_H-M    'P1' 
_symmetry_Int_Tables_number       1 
_symmetry_cell_setting            triclinic 
loop_ 
_symmetry_equiv_pos_as_xyz 
  x,y,z 
_cell_length_a                    49.71394209 
_cell_length_b                    50.01888325981319 
_cell_length_c                    49.947378527513905 
_cell_angle_alpha                 89.9823831191518 
_cell_angle_beta                  89.97502009129619 
_cell_angle_gamma                 89.99587209170603 
loop_ 
_atom_site_label 
_atom_site_type_symbol 
_atom_site_fract_x 
_atom_site_fract_y 
_atom_site_fract_z 
_atom_site_charge 
Zn1        Zn  0.02367338  0.66036535  0.81170387     1.49700
Zn2        Zn  0.99170170  0.60880561  0.78976923     1.49400
Zn3        Zn  0.99613201  0.61645449  0.85050566     1.49100
Zn4        Zn  0.96320180  0.65977364  0.81577375     1.49500
O5          O  0.99378028  0.63583727  0.81695987    -1.84000
O6          O  0.04959467  0.64243342  0.78769799    -0.74600
O7          O  0.99238293  0.56959116  0.80366097    -0.74400
O8          O  0.03010002  0.62869683  0.86840994    -0.73900
O9          O  0.02360243  0.61310429  0.76606385    -0.74600
O10         O  0.04322288  0.66539798  0.84669096    -0.74200
O11         O  0.99555175  0.57436615  0.84738356    -0.74800
O12         O  0.95031322  0.66627348  0.85314241    -0.74200
O13         O  0.95690820  0.61348971  0.77056411    -0.74900
O14         O  0.96610434  0.63006328  0.87403502    -0.74300
O15         O  0.93363131  0.64094940  0.79720347    -0.74800
O16         O  0.96951992  0.69402693  0.79393321    -0.74700
O17         O  0.01375244  0.69528564  0.79181353    -0.74500
C18         C  0.04597020  0.62507666  0.76952251     0.77300
C19         C  0.99405966  0.55900374  0.82690537     0.77800
C20         C  0.04551514  0.64901629  0.86615924     0.76700
C21         C  0.95103638  0.65076923  0.87339609     0.77100
C22         C  0.93495841  0.62430567  0.77808131     0.78300
C23         C  0.99093661  0.70507304  0.78528529     0.77300
Zn24       Zn  0.96705401  0.38565811  0.82273242     1.49700
Zn25       Zn  0.99349617  0.32872333  0.83554453     1.49400
Zn26       Zn  0.00647509  0.35830784  0.78299986     1.49100
Zn27       Zn  0.02234518  0.38632746  0.83974219     1.49500
O28         O  0.99793145  0.36390672  0.81970313    -1.84000
O29         O  0.94868891  0.37398694  0.85572001    -0.74600
O30         O  0.99312227  0.29726330  0.80715421    -0.74400
O31         O  0.97495446  0.37106715  0.76087472    -0.73900
O32         O  0.96022931  0.33078223  0.85915540    -0.74600
O33         O  0.94402419  0.37751682  0.79234266    -0.74200
O34         O  0.01055178  0.31925814  0.77277768    -0.74800
O35         O  0.05505285  0.38835971  0.81793621    -0.74200
O36         O  0.02470084  0.32427221  0.86158692    -0.74900
O37         O  0.04105795  0.37804643  0.77665851    -0.74300
O38         O  0.03305141  0.36680495  0.87308468    -0.74800
O39         O  0.01226499  0.42707376  0.84437380    -0.74700
O40         O  0.97416779  0.42650309  0.82206448    -0.74500
C41         C  0.94688390  0.35120591  0.86697953     0.77300
C42         C  0.00265060  0.29740348  0.78325792     0.77800
C43         C  0.95060277  0.37526543  0.76794608     0.76700
C44         C  0.05851529  0.38771619  0.79278539     0.77100
C45         C  0.03612926  0.34168157  0.87649254     0.78300
C46         C  0.99318408  0.43980743  0.83283744     0.77300
Zn47       Zn  0.14047133  0.50808485  0.71386886     1.49700
Zn48       Zn  0.11312209  0.52879521  0.66010046     1.49400
Zn49       Zn  0.16901921  0.49518169  0.65996778     1.49100
Zn50       Zn  0.10999330  0.47078647  0.67215157     1.49500
O51         O  0.13379898  0.50074495  0.67666948    -1.84000
O52         O  0.12170871  0.54218939  0.72321540    -0.74600
O53         O  0.13087944  0.53757710  0.62545207    -0.74400
O54         O  0.20104512  0.49553476  0.68787844    -0.73900
O55         O  0.11577124  0.56081401  0.68318667    -0.74600
O56         O  0.17979424  0.51108572  0.72364450    -0.74200
O57         O  0.17332598  0.52340322  0.63059545    -0.74800
O58         O  0.12398097  0.44808742  0.64249897    -0.74200
O59         O  0.07161105  0.52224663  0.65702196    -0.74900
O60         O  0.16731031  0.45987188  0.63987818    -0.74300
O61         O  0.06936692  0.47988123  0.66913512    -0.74800
O62         O  0.11324196  0.44890144  0.70428796    -0.74700
O63         O  0.12761995  0.47696310  0.73556561    -0.74500
C64         C  0.11460341  0.56186158  0.70855133     0.77300
C65         C  0.15532555  0.53639690  0.61770478     0.77800
C66         C  0.20141859  0.50346313  0.71232174     0.76700
C67         C  0.14770499  0.44469525  0.63334785     0.77100
C68         C  0.05757982  0.50167769  0.66293398     0.78300
C69         C  0.11912971  0.45401475  0.72840018     0.77300
Zn70       Zn  0.88021613  0.50165874  0.64578537     1.49700
Zn71       Zn  0.83567701  0.52861697  0.68477364     1.49400
Zn72       Zn  0.83933283  0.46856950  0.68271107     1.49100
Zn73       Zn  0.88941566  0.50043660  0.70666933     1.49500
O74         O  0.86159775  0.50010086  0.67987746    -1.84000
O75         O  0.86660591  0.53467650  0.62678253    -0.74600
O76         O  0.80092238  0.51776769  0.70480794    -0.74400
O77         O  0.83112599  0.45502830  0.64589825    -0.73900
O78         O  0.83032156  0.54800771  0.64985845    -0.74600
O79         O  0.86707932  0.47026383  0.62404361    -0.74200
O80         O  0.80577765  0.47396716  0.70612232    -0.74800
O81         O  0.89119151  0.46406324  0.72283441    -0.74200
O82         O  0.85296347  0.55499760  0.70836893    -0.74900
O83         O  0.86181238  0.44012792  0.69892094    -0.74300
O84         O  0.88228317  0.53071573  0.73203617    -0.74800
O85         O  0.92790245  0.50551929  0.69206162    -0.74700
O86         O  0.92260236  0.50204451  0.64843488    -0.74500
C87         C  0.84618668  0.54987915  0.62984523     0.77300
C88         C  0.79304804  0.49495068  0.71324689     0.77800
C89         C  0.84648975  0.45499089  0.62545718     0.76700
C90         C  0.88166810  0.44181938  0.71477632     0.77100
C91         C  0.86983167  0.55251902  0.72726413     0.78300
C92         C  0.93825584  0.50427042  0.66869927     0.77300
Zn93       Zn  0.61046713  0.99761175  0.78971359     1.49700
Zn94       Zn  0.65926866  0.96644846  0.81462853     1.49400
Zn95       Zn  0.66145013  0.02644639  0.81537800     1.49100
Zn96       Zn  0.61573596  0.99713870  0.85100815     1.49500
O97         O  0.63612328  0.99720008  0.81799079    -1.84000
O98         O  0.61223221  0.96289275  0.77030266    -0.74600
O99         O  0.69268342  0.97339137  0.79126932    -0.74400
O100        O  0.64489308  0.05440631  0.79292009    -0.73900
O101        O  0.63796443  0.93814567  0.79724084    -0.74600
O102        O  0.61776708  0.02968843  0.76724512    -0.74200
O103        O  0.69619022  0.01714607  0.79492583    -0.74800
O104        O  0.62878794  0.02920139  0.87215586    -0.74200
O105        O  0.66656434  0.95159847  0.85098063    -0.74900
O106        O  0.66637503  0.04285541  0.85172163    -0.74300
O107        O  0.62882478  0.96483124  0.87151976    -0.74800
O108        O  0.57309474  0.99661887  0.84624064    -0.74700
O109        O  0.57117694  0.99937629  0.80225952    -0.74500
C110        C  0.62049515  0.94038345  0.77893151     0.77300
C111        C  0.70468012  0.99514667  0.78514976     0.77800
C112        C  0.62937153  0.05171519  0.77294540     0.76700
C113        C  0.64988120  0.04382811  0.87132004     0.77100
C114        C  0.64986211  0.95013034  0.87031997     0.78300
C115        C  0.55904747  0.99767615  0.82468262     0.77300
Zn116      Zn  0.38864714  0.99980574  0.78860392     1.49700
Zn117      Zn  0.38152708  0.99960519  0.84893564     1.49400
Zn118      Zn  0.33850686  0.03070052  0.81344952     1.49100
Zn119      Zn  0.33665647  0.97068628  0.81197143     1.49500
O120        O  0.36171115  0.99988106  0.81572026    -1.84000
O121        O  0.42768969  0.99537100  0.80212165    -0.74600
O122        O  0.36858342  0.03080852  0.87051015    -0.74400
O123        O  0.36044879  0.05963068  0.79756512    -0.73900
O124        O  0.42392858  0.99918327  0.84586195    -0.74600
O125        O  0.38867396  0.03583623  0.77206181    -0.74200
O126        O  0.33033699  0.04315016  0.85060546    -0.74800
O127        O  0.30193039  0.98086955  0.79151072    -0.74200
O128        O  0.36779250  0.96812578  0.86936355    -0.74900
O129        O  0.30475436  0.02485558  0.79024259    -0.74300
O130        O  0.33076124  0.95419852  0.84850124    -0.74800
O131        O  0.35477667  0.94355604  0.78919338    -0.74700
O132        O  0.38113906  0.96949345  0.76382417    -0.74500
C133        C  0.43887433  0.99681473  0.82509554     0.77300
C134        C  0.34673925  0.04424281  0.87019563     0.77800
C135        C  0.37953041  0.05798641  0.78077392     0.76700
C136        C  0.29281695  0.00335283  0.78332843     0.77100
C137        C  0.34672100  0.95351478  0.86852197     0.78300
C138        C  0.37059427  0.94693164  0.76945871     0.77300
Zn139      Zn  0.53108125  0.11013779  0.66236363     1.49700
Zn140      Zn  0.47241051  0.10915907  0.66967697     1.49400
Zn141      Zn  0.50871208  0.13812653  0.71456695     1.49100
Zn142      Zn  0.50038289  0.16721958  0.65965535     1.49500
O143        O  0.50291310  0.13180098  0.67686347    -1.84000
O144        O  0.52352926  0.06943078  0.65841584    -0.74600
O145        O  0.45002532  0.11116299  0.70171792    -0.74400
O146        O  0.54351349  0.12098582  0.72559253    -0.73900
O147        O  0.47963724  0.06860699  0.66281390    -0.74600
O148        O  0.56239786  0.11316215  0.68607917    -0.74200
O149        O  0.47620879  0.12551060  0.73485468    -0.74800
O150        O  0.50249285  0.19940885  0.68694194    -0.74200
O151        O  0.45109460  0.12594799  0.64050134    -0.74900
O152        O  0.51208573  0.17710203  0.72404706    -0.74300
O153        O  0.46574036  0.16813947  0.63790855    -0.74800
O154        O  0.52999299  0.16931266  0.63151335    -0.74700
O155        O  0.54171899  0.12624818  0.62812825    -0.74500
C156        C  0.50172781  0.05600894  0.65934201     0.77300
C157        C  0.45363374  0.11711236  0.72612287     0.77800
C158        C  0.56376117  0.11424386  0.71137478     0.76700
C159        C  0.50822934  0.19915446  0.71197830     0.77100
C160        C  0.44950933  0.14956817  0.63102010     0.78300
C161        C  0.54225093  0.15024102  0.61963535     0.77300
Zn162      Zn  0.49892010  0.82506385  0.65935297     1.49700
Zn163      Zn  0.52795320  0.88337125  0.66617185     1.49400
Zn164      Zn  0.46913531  0.88271418  0.65928964     1.49100
Zn165      Zn  0.49281552  0.85759726  0.71269933     1.49500
O166        O  0.49735952  0.86137858  0.67468800    -1.84000
O167        O  0.53293626  0.82355717  0.63608283    -0.74600
O168        O  0.52081028  0.92395505  0.65998187    -0.74400
O169        O  0.45772018  0.86528218  0.62544579    -0.73900
O170        O  0.54758935  0.86594985  0.63628119    -0.74600
O171        O  0.46815922  0.82224044  0.63223958    -0.74200
O172        O  0.47700147  0.92342494  0.65490554    -0.74800
O173        O  0.45830174  0.87580412  0.72303666    -0.74200
O174        O  0.55197250  0.88198695  0.69704420    -0.74900
O175        O  0.43807791  0.88115339  0.68373639    -0.74300
O176        O  0.52568714  0.87179144  0.73148042    -0.74800
O177        O  0.48982435  0.81917552  0.72456635    -0.74700
O178        O  0.49685958  0.79400466  0.68887242    -0.74500
C179        C  0.54873101  0.84197576  0.62768040     0.77300
C180        C  0.49884565  0.93673868  0.65647738     0.77800
C181        C  0.45612885  0.84065149  0.61907431     0.76700
C182        C  0.43764733  0.88194091  0.70910315     0.77100
C183        C  0.54844745  0.87877426  0.72194845     0.78300
C184        C  0.49212185  0.79611591  0.71410498     0.77300
Zn185      Zn  0.38350666  0.82945995  0.96713030     1.49700
Zn186      Zn  0.35620320  0.78385132  0.00126799     1.49400
Zn187      Zn  0.38204199  0.83642135  0.02500865     1.49100
Zn188      Zn  0.32497378  0.83702432  0.99426882     1.49500
O189        O  0.36083297  0.82129276  0.99686658    -1.84000
O190        O  0.37827058  0.80067858  0.94119130    -0.74600
O191        O  0.37605021  0.77344143  0.03454678    -0.74400
O192        O  0.42356857  0.83818657  0.01829147    -0.73900
O193        O  0.36942703  0.76615869  0.96772717    -0.74600
O194        O  0.42480630  0.83145733  0.97470967    -0.74200
O195        O  0.37878372  0.81243471  0.05583593    -0.74800
O196        O  0.32148068  0.86195134  0.02642068    -0.74200
O197        O  0.31733619  0.77227048  0.00508567    -0.74900
O198        O  0.36471216  0.87054644  0.03603865    -0.74300
O199        O  0.29354411  0.80796110  0.99359571    -0.74800
O200        O  0.32541251  0.86250834  0.96212582    -0.74700
O201        O  0.36909614  0.86260648  0.95114666    -0.74500
C202        C  0.37521276  0.77571954  0.94477597     0.77300
C203        C  0.38157333  0.78726465  0.05533886     0.77800
C204        C  0.43716971  0.83468701  0.99687219     0.76700
C205        C  0.33964692  0.87551409  0.03844723     0.77100
C206        C  0.29471974  0.78306230  0.99991924     0.78300
C207        C  0.34550000  0.87240330  0.94947642     0.77300
Zn208      Zn  0.65828335  0.81414673  0.96980899     1.49700
Zn209      Zn  0.65808938  0.81265202  0.03046700     1.49400
Zn210      Zn  0.61451365  0.85048465  0.99982428     1.49100
Zn211      Zn  0.60627660  0.78964595  0.00025972     1.49500
O212        O  0.63385213  0.81676831  0.00018903    -1.84000
O213        O  0.69313061  0.79308070  0.97768945    -0.74600
O214        O  0.66234901  0.84807886  0.04848334    -0.74400
O215        O  0.62793358  0.87198710  0.96836506    -0.73900
O216        O  0.69359291  0.79336186  0.02176748    -0.74600
O217        O  0.66428815  0.85053509  0.95342900    -0.74200
O218        O  0.62677008  0.87038690  0.03248594    -0.74800
O219        O  0.56687392  0.80381074  0.00082603    -0.74200
O220        O  0.64057506  0.78948661  0.05737859    -0.74900
O221        O  0.57226258  0.84749791  0.99874421    -0.74300
O222        O  0.61087112  0.76672511  0.03286783    -0.74800
O223        O  0.61001894  0.76964825  0.96605102    -0.74700
O224        O  0.63920149  0.79374319  0.94189656    -0.74500
C225        C  0.70408288  0.78591378  0.99965429     0.77300
C226        C  0.64659406  0.86821042  0.04857725     0.77800
C227        C  0.64848971  0.87066604  0.95311534     0.76700
C228        C  0.55657095  0.82719384  0.99952259     0.77100
C229        C  0.62315759  0.77113700  0.05483220     0.78300
C230        C  0.62143744  0.77567336  0.94400134     0.77300
Zn231      Zn  0.49667670  0.64227405  0.11667469     1.49700
Zn232      Zn  0.46662945  0.68295247  0.15772488     1.49400
Zn233      Zn  0.52761838  0.67964757  0.15988604     1.49100
Zn234      Zn  0.50046117  0.70298676  0.10692661     1.49500
O235        O  0.49775215  0.67674880  0.13493342    -1.84000
O236        O  0.46342342  0.62318584  0.12980118    -0.74600
O237        O  0.47477665  0.70290772  0.19299071    -0.74400
O238        O  0.54160211  0.64287235  0.16737241    -0.73900
O239        O  0.44647135  0.64840381  0.16267235    -0.74600
O240        O  0.52772955  0.62055617  0.13110557    -0.74200
O241        O  0.51912038  0.70183941  0.19364242    -0.74800
O242        O  0.53638948  0.72011941  0.10911526    -0.74200
O243        O  0.44235341  0.70718705  0.13800106    -0.74900
O244        O  0.55789697  0.69843840  0.14178402    -0.74300
O245        O  0.47061716  0.72898057  0.11093981    -0.74800
O246        O  0.49742725  0.68805952  0.06865767    -0.74700
O247        O  0.49727862  0.64428456  0.07424264    -0.74500
C248        C  0.44647737  0.62708410  0.14864490     0.77300
C249        C  0.49695102  0.70985439  0.20379533     0.77800
C250        C  0.54217636  0.62235283  0.15218204     0.76700
C251        C  0.55758458  0.71476317  0.12233845     0.77100
C252        C  0.44744800  0.72562144  0.12127557     0.78300
C253        C  0.49699467  0.66462744  0.05858523     0.77300
Zn254      Zn  0.46713911  0.66349097  0.88514207     1.49700
Zn255      Zn  0.49426974  0.71359487  0.85887559     1.49400
Zn256      Zn  0.52553472  0.66509125  0.88686553     1.49100
Zn257      Zn  0.49785454  0.65901135  0.82819910     1.49500
O258        O  0.49647661  0.67568093  0.86380381    -1.84000
O259        O  0.43695279  0.68788234  0.87910038    -0.74600
O260        O  0.52791040  0.73033734  0.87391438    -0.74400
O261        O  0.51753210  0.65942242  0.92743514    -0.73900
O262        O  0.45964436  0.72602895  0.87538912    -0.74600
O263        O  0.47340328  0.66283277  0.92642994    -0.74200
O264        O  0.55130177  0.69439970  0.88561733    -0.74800
O265        O  0.53254322  0.63691989  0.82700015    -0.74200
O266        O  0.49228122  0.72463439  0.82001960    -0.74900
O267        O  0.54401003  0.63432882  0.87034896    -0.74300
O268        O  0.49574626  0.68742926  0.79621340    -0.74800
O269        O  0.46754140  0.63095513  0.82728593    -0.74700
O270        O  0.45611942  0.62852671  0.87061148    -0.74500
C271        C  0.43780586  0.71322245  0.87940144     0.77300
C272        C  0.54965430  0.71946200  0.88197291     0.77800
C273        C  0.49515424  0.66080259  0.93986123     0.76700
C274        C  0.54685847  0.62733796  0.84601444     0.77100
C275        C  0.49322737  0.71299895  0.79737061     0.78300
C276        C  0.45521940  0.61956148  0.84674062     0.77300
Zn277      Zn  0.79357515  0.61176763  0.00624879     1.49700
Zn278      Zn  0.81993372  0.65981017  0.97568188     1.49400
Zn279      Zn  0.82087047  0.66141964  0.03582655     1.49100
Zn280      Zn  0.85537231  0.61595346  0.00573089     1.49500
O281        O  0.82263459  0.63671121  0.00621494    -1.84000
O282        O  0.77524069  0.61282787  0.97063661    -0.74600
O283        O  0.79661349  0.69295313  0.98267299    -0.74400
O284        O  0.79834276  0.64372181  0.06310881    -0.73900
O285        O  0.80284654  0.63879547  0.94682349    -0.74600
O286        O  0.77041039  0.61916018  0.03811066    -0.74200
O287        O  0.80036909  0.69626858  0.02655169    -0.74800
O288        O  0.87640776  0.62712319  0.03818645    -0.74200
O289        O  0.85696430  0.66741520  0.96215592    -0.74900
O290        O  0.85798433  0.66502961  0.05276549    -0.74300
O291        O  0.87704228  0.62926735  0.97415692    -0.74800
O292        O  0.84990196  0.57403416  0.00501370    -0.74700
O293        O  0.80586287  0.57280262  0.00929787    -0.74500
C294        C  0.78448294  0.62127699  0.94838494     0.77300
C295        C  0.79056679  0.70483636  0.00449556     0.77800
C296        C  0.77796069  0.62862119  0.06060970     0.76700
C297        C  0.87686873  0.64761565  0.05338414     0.77100
C298        C  0.87647571  0.65089090  0.96051827     0.78300
C299        C  0.82817039  0.56040833  0.00738579     0.77300
Zn300      Zn  0.81811374  0.34022632  0.97538028     1.49700
Zn301      Zn  0.82037425  0.34107222  0.03581556     1.49400
Zn302      Zn  0.85501905  0.38472171  0.00274525     1.49100
Zn303      Zn  0.79401191  0.39042996  0.00607366     1.49500
O304        O  0.82198228  0.36456014  0.00520883    -1.84000
O305        O  0.79775627  0.30569953  0.98439086    -0.74600
O306        O  0.85829041  0.33481068  0.04858810    -0.74400
O307        O  0.87278758  0.37359780  0.96836530    -0.73900
O308        O  0.79871526  0.30660785  0.02851969    -0.74600
O309        O  0.85382919  0.33460062  0.95807769    -0.74200
O310        O  0.87911077  0.37053916  0.03170908    -0.74800
O311        O  0.80695522  0.42951394  0.00615258    -0.74200
O312        O  0.80071534  0.36045440  0.06468322    -0.74900
O313        O  0.85110509  0.42666138  0.00456656    -0.74300
O314        O  0.77341804  0.38561418  0.03967507    -0.74800
O315        O  0.77192569  0.38593413  0.97342381    -0.74700
O316        O  0.79612023  0.35826195  0.94791053    -0.74500
C317        C  0.79068863  0.29570752  0.00683009     0.77300
C318        C  0.87895101  0.34986384  0.04677208     0.77800
C319        C  0.87191073  0.35225025  0.95432437     0.76700
C320        C  0.82984167  0.44108063  0.00562506     0.77100
C321        C  0.78093982  0.37639638  0.06224175     0.78300
C322        C  0.77720611  0.37498178  0.95101243     0.77300
Zn323      Zn  0.64972150  0.50116835  0.11994204     1.49700
Zn324      Zn  0.71136715  0.50428347  0.11300996     1.49400
Zn325      Zn  0.68521865  0.53281767  0.16313394     1.49100
Zn326      Zn  0.68729325  0.47258234  0.16392484     1.49500
O327        O  0.68331967  0.50250801  0.13946901    -1.84000
O328        O  0.65329013  0.50272475  0.07814135    -0.74600
O329        O  0.73226644  0.53794763  0.11878997    -0.74400
O330        O  0.64783608  0.54624972  0.17019823    -0.73900
O331        O  0.69740495  0.50624944  0.07401304    -0.74600
O332        O  0.62649203  0.53112430  0.13384827    -0.74200
O333        O  0.70366094  0.56186481  0.14356033    -0.74800
O334        O  0.70837167  0.48184096  0.19853260    -0.74200
O335        O  0.73320492  0.47068057  0.11565044    -0.74900
O336        O  0.70848647  0.52592817  0.19652887    -0.74300
O337        O  0.70994244  0.44626578  0.14518914    -0.74800
O338        O  0.65136993  0.45366647  0.16828918    -0.74700
O339        O  0.63101100  0.46758540  0.13097520    -0.74500
C340        C  0.67412887  0.50518840  0.06326932     0.77300
C341        C  0.72377514  0.56018161  0.12800283     0.77800
C342        C  0.62751135  0.54603261  0.15458522     0.76700
C343        C  0.71642199  0.50432499  0.20766146     0.77100
C344        C  0.72785214  0.44858902  0.12724118     0.78300
C345        C  0.63221551  0.45214753  0.15124013     0.77300
Zn346      Zn  0.66307635  0.50274484  0.83389436     1.49700
Zn347      Zn  0.71910174  0.49744612  0.86172168     1.49400
Zn348      Zn  0.67421443  0.53381317  0.89034125     1.49100
Zn349      Zn  0.66695780  0.47515018  0.89159499     1.49500
O350        O  0.68121345  0.50256961  0.86879208    -1.84000
O351        O  0.68961164  0.50191981  0.80113310    -0.74600
O352        O  0.73901320  0.53036302  0.87380162    -0.74400
O353        O  0.64245718  0.55280319  0.87428738    -0.73900
O354        O  0.72786542  0.49359265  0.82237564    -0.74600
O355        O  0.63916286  0.53532434  0.83308395    -0.74200
O356        O  0.70562514  0.55723232  0.88646679    -0.74800
O357        O  0.66338439  0.48380679  0.93204459    -0.74200
O358        O  0.73121277  0.46354830  0.87981696    -0.74900
O359        O  0.67076378  0.52716001  0.93154217    -0.74300
O360        O  0.69195048  0.44515380  0.89011910    -0.74800
O361        O  0.63316468  0.46167681  0.87605910    -0.74700
O362        O  0.63664912  0.47153297  0.83265044    -0.74500
C363        C  0.71490420  0.49698625  0.80068203     0.77300
C364        C  0.73033234  0.55314852  0.88141759     0.77800
C365        C  0.63184188  0.55196155  0.85102772     0.76700
C366        C  0.66657959  0.50567429  0.94476742     0.77100
C367        C  0.71729106  0.44381147  0.88826653     0.78300
C368        C  0.62499029  0.45951621  0.85203651     0.77300
Zn369      Zn  0.99381369  0.79533629  0.60418783     1.49700
Zn370      Zn  0.96288695  0.81810723  0.65593667     1.49400
Zn371      Zn  0.02461624  0.81473296  0.65647703     1.49100
Zn372      Zn  0.99574706  0.85458331  0.61415837     1.49500
O373        O  0.99438791  0.82073169  0.63274432    -1.84000
O374        O  0.95637951  0.78261971  0.60110413    -0.74600
O375        O  0.97000607  0.79485022  0.68969626    -0.74400
O376        O  0.04880387  0.78856920  0.63874844    -0.73900
O377        O  0.93300669  0.80149578  0.63433602    -0.74600
O378        O  0.02058669  0.76679016  0.61171942    -0.74200
O379        O  0.01433464  0.79639547  0.69185791    -0.74800
O380        O  0.02891698  0.87315733  0.62688846    -0.74200
O381        O  0.95054219  0.85574616  0.66475926    -0.74900
O382        O  0.04531408  0.84920189  0.66090126    -0.74300
O383        O  0.96591571  0.87700773  0.62866921    -0.74800
O384        O  0.99541547  0.85317786  0.57204419    -0.74700
O385        O  0.00223792  0.80994036  0.56669203    -0.74500
C386        C  0.93429293  0.78791984  0.61282070     0.77300
C387        C  0.99195746  0.78829868  0.70139674     0.77800
C388        C  0.04348051  0.76941192  0.62289088     0.76700
C389        C  0.04554683  0.87000015  0.64607920     0.77100
C390        C  0.95176859  0.87656903  0.64994525     0.78300
C391        C  0.00004617  0.83324569  0.55664415     0.77300
Zn392      Zn  0.00188234  0.83696966  0.32739562     1.49700
Zn393      Zn  0.01298856  0.78452231  0.35831703     1.49400
Zn394      Zn  0.03212746  0.83921551  0.38468662     1.49100
Zn395      Zn  0.97392802  0.82734682  0.38533110     1.49500
O396        O  0.00522775  0.82163696  0.36335520    -1.84000
O397        O  0.00588243  0.80896639  0.29621039    -0.74600
O398        O  0.04722083  0.77726425  0.37768122    -0.74400
O399        O  0.03977597  0.87403904  0.36715604    -0.73900
O400        O  0.01822158  0.77341901  0.31965624    -0.74600
O401        O  0.02904751  0.86701231  0.32420422    -0.74200
O402        O  0.06531053  0.81769232  0.38345027    -0.74800
O403        O  0.98020789  0.83434127  0.42580826    -0.74200
O404        O  0.98142105  0.76306651  0.37149568    -0.74900
O405        O  0.02374352  0.84235046  0.42545257    -0.74300
O406        O  0.95246052  0.79469437  0.38345961    -0.74800
O407        O  0.95246707  0.85588378  0.36836336    -0.74700
O408        O  0.96645016  0.85665232  0.32572773    -0.74500
C409        C  0.01360962  0.78454371  0.29721164     0.77300
C410        C  0.06668797  0.79239215  0.38463243     0.77800
C411        C  0.03954094  0.88126489  0.34266666     0.76700
C412        C  0.00187181  0.83934885  0.43851238     0.77100
C413        C  0.95810283  0.77029374  0.37925371     0.78300
C414        C  0.95056395  0.86415975  0.34433909     0.77300
Zn415      Zn  0.13676698  0.71013025  0.50737481     1.49700
Zn416      Zn  0.17023991  0.65838486  0.49861373     1.49400
Zn417      Zn  0.11117731  0.65575422  0.52704612     1.49100
Zn418      Zn  0.11263130  0.66648798  0.46831825     1.49500
O419        O  0.13333099  0.67275513  0.50038390    -1.84000
O420        O  0.17483202  0.72219391  0.51213429    -0.74600
O421        O  0.17292292  0.62828870  0.52629769    -0.74400
O422        O  0.10967285  0.67895094  0.55912802    -0.73900
O423        O  0.20093651  0.68770516  0.50306661    -0.74600
O424        O  0.11661700  0.71889152  0.54074004    -0.74200
O425        O  0.12972728  0.62207273  0.53739857    -0.74800
O426        O  0.07149235  0.65982784  0.47380362    -0.74200
O427        O  0.17349794  0.63890046  0.46318793    -0.74900
O428        O  0.07084834  0.65079280  0.51687442    -0.74300
O429        O  0.13126474  0.63805348  0.44754860    -0.74800
O430        O  0.11564459  0.69877206  0.44628760    -0.74700
O431        O  0.12471199  0.73077043  0.47555527    -0.74500
C432        C  0.19823080  0.71247783  0.50921591     0.77300
C433        C  0.15428665  0.61467514  0.53758135     0.77800
C434        C  0.10880280  0.70429230  0.56018780     0.76700
C435        C  0.05810347  0.65423630  0.49491876     0.77100
C436        C  0.15581251  0.63066686  0.44656879     0.78300
C437        C  0.11926895  0.72321088  0.45183281     0.77300
Zn438      Zn  0.82584189  0.65766975  0.49748664     1.49700
Zn439      Zn  0.88387294  0.65842285  0.46694211     1.49400
Zn440      Zn  0.85478917  0.71241482  0.48752896     1.49100
Zn441      Zn  0.88431236  0.66941501  0.52507042     1.49500
O442        O  0.86153532  0.67481412  0.49420799    -1.84000
O443        O  0.82344426  0.62815014  0.46916578    -0.74600
O444        O  0.88388457  0.68209208  0.43549538    -0.74400
O445        O  0.81508544  0.72166519  0.48234382    -0.73900
O446        O  0.86647979  0.62429697  0.45649451    -0.74600
O447        O  0.79318915  0.68503163  0.49459210    -0.74200
O448        O  0.87507465  0.72180268  0.45393991    -0.74800
O449        O  0.88239764  0.70199871  0.54659329    -0.74200
O450        O  0.92482216  0.65345054  0.47538383    -0.74900
O451        O  0.86690656  0.73398277  0.51993614    -0.74300
O452        O  0.92502614  0.66283921  0.51822737    -0.74800
O453        O  0.86810285  0.64055047  0.54705192    -0.74700
O454        O  0.82564381  0.63686723  0.53270484    -0.74500
C455        C  0.84234302  0.61571451  0.45704708     0.77300
C456        C  0.88392493  0.70747262  0.43469098     0.77800
C457        C  0.79299041  0.70967267  0.48730105     0.76700
C458        C  0.87611428  0.72620103  0.54250685     0.77100
C459        C  0.93803604  0.65686514  0.49704562     0.78300
C460        C  0.84458834  0.63056479  0.54884403     0.77300
Zn461      Zn  0.82129218  0.02896151  0.60753669     1.49700
Zn462      Zn  0.83391277  0.00162652  0.66475538     1.49400
Zn463      Zn  0.78031955  0.98881943  0.63583761     1.49100
Zn464      Zn  0.83645980  0.97206076  0.60751887     1.49500
O465        O  0.81762200  0.99769035  0.62943631    -1.84000
O466        O  0.85111389  0.05102834  0.62251500    -0.74600
O467        O  0.80561808  0.00169390  0.69574238    -0.74400
O468        O  0.75758011  0.02064679  0.62563239    -0.73900
O469        O  0.85584264  0.03574622  0.66436595    -0.74600
O470        O  0.78858616  0.04993255  0.61253402    -0.74200
O471        O  0.77089351  0.98302623  0.67505263    -0.74800
O472        O  0.81295713  0.94081816  0.60358586    -0.74200
O473        O  0.86098825  0.97153822  0.66970023    -0.74900
O474        O  0.77197929  0.95596886  0.61409685    -0.74300
O475        O  0.86892978  0.95994842  0.62713007    -0.74800
O476        O  0.84360304  0.98208927  0.56771935    -0.74700
O477        O  0.82480093  0.02188229  0.56665722    -0.74500
C478        C  0.86163971  0.05229693  0.64576963     0.77300
C479        C  0.78184189  0.99184822  0.69635440     0.77800
C480        C  0.76450325  0.04420159  0.61867549     0.76700
C481        C  0.78754377  0.93864810  0.60345361     0.77100
C482        C  0.87445394  0.95883468  0.65202358     0.78300
C483        C  0.83500188  0.00199919  0.55423384     0.77300
Zn484      Zn  0.79260819  0.99535651  0.38561994     1.49700
Zn485      Zn  0.85455352  0.99455707  0.37876747     1.49400
Zn486      Zn  0.81605591  0.96476988  0.33532409     1.49100
Zn487      Zn  0.81776349  0.02583674  0.33587151     1.49500
O488        O  0.82063506  0.99494243  0.35929593    -1.84000
O489        O  0.80614597  0.99670578  0.42440189    -0.74600
O490        O  0.87515118  0.96219411  0.36542686    -0.74400
O491        O  0.79121769  0.93787795  0.35125172    -0.73900
O492        O  0.85039833  0.99530348  0.42095742    -0.74600
O493        O  0.76997718  0.96312388  0.38125664    -0.74200
O494        O  0.85119749  0.94643693  0.33084014    -0.74800
O495        O  0.79600669  0.01859653  0.30138177    -0.74200
O496        O  0.87573933  0.02686751  0.36657760    -0.74900
O497        O  0.79753479  0.97457318  0.30033835    -0.74300
O498        O  0.85435388  0.04230515  0.33046952    -0.74800
O499        O  0.79751853  0.05339229  0.35586234    -0.74700
O500        O  0.77072872  0.02801969  0.38110583    -0.74500
C501        C  0.82920570  0.99688295  0.43555884     0.77300
C502        C  0.87202134  0.94620994  0.34568641     0.77800
C503        C  0.77261066  0.94140136  0.36827800     0.76700
C504        C  0.78918219  0.99652121  0.29045052     0.77100
C505        C  0.87430704  0.04272109  0.34658766     0.78300
C506        C  0.77818810  0.05063250  0.37220967     0.77300
Zn507      Zn  0.70236877  0.10123555  0.49737201     1.49700
Zn508      Zn  0.64281990  0.11275159  0.49091768     1.49400
Zn509      Zn  0.67871256  0.15397033  0.52620528     1.49100
Zn510      Zn  0.68522643  0.15498133  0.46631395     1.49500
O511        O  0.67735739  0.13040262  0.49515963    -1.84000
O512        O  0.68587717  0.06340040  0.49497851    -0.74600
O513        O  0.62033057  0.12573764  0.52125301    -0.74400
O514        O  0.69398291  0.13234304  0.55585025    -0.73900
O515        O  0.64249389  0.07032284  0.48940811    -0.74600
O516        O  0.71837302  0.10185033  0.53377803    -0.74200
O517        O  0.64065949  0.16167587  0.53795628    -0.74800
O518        O  0.70715815  0.18826197  0.47764483    -0.74200
O519        O  0.62523302  0.12878531  0.45871452    -0.74900
O520        O  0.70282518  0.18778478  0.52153446    -0.74300
O521        O  0.65084783  0.16355029  0.44663425    -0.74800
O522        O  0.70775455  0.13494264  0.44083340    -0.74700
O523        O  0.72790975  0.10423873  0.46654103    -0.74500
C524        C  0.66221170  0.05402179  0.49196324     0.77300
C525        C  0.62034356  0.14604884  0.53662364     0.77800
C526        C  0.70991466  0.11251323  0.55537821     0.76700
C527        C  0.71287738  0.19834285  0.50047478     0.77100
C528        C  0.62939584  0.14965731  0.44464253     0.78300
C529        C  0.72453021  0.11609627  0.44416534     0.77300
Zn530      Zn  0.65560394  0.82289464  0.49401269     1.49700
Zn531      Zn  0.70977225  0.85200168  0.48282994     1.49400
Zn532      Zn  0.65568696  0.88115460  0.46286257     1.49100
Zn533      Zn  0.66716310  0.88095605  0.52108488     1.49500
O534        O  0.67222553  0.85863006  0.49004048    -1.84000
O535        O  0.68347144  0.79030830  0.49123117    -0.74600
O536        O  0.71918385  0.86935234  0.44810877    -0.74400
O537        O  0.62130908  0.86333850  0.45282522    -0.73900
O538        O  0.71997305  0.81299311  0.48007587    -0.74600
O539        O  0.62608157  0.82059674  0.46567512    -0.74200
O540        O  0.67944111  0.88048762  0.43091955    -0.74800
O541        O  0.66183096  0.92155432  0.51410634    -0.74200
O542        O  0.73164285  0.86640923  0.51316018    -0.74900
O543        O  0.65130529  0.92232613  0.47141422    -0.74300
O544        O  0.70021959  0.87905804  0.54221592    -0.74800
O545        O  0.63815961  0.86514878  0.54348222    -0.74700
O546        O  0.63492458  0.82277555  0.52951220    -0.74500
C547        C  0.70843808  0.79074562  0.48451726     0.77300
C548        C  0.70484413  0.87847339  0.42901741     0.77800
C549        C  0.61338423  0.83906053  0.45322111     0.76700
C550        C  0.65610279  0.93498046  0.49314201     0.77100
C551        C  0.72462421  0.87488937  0.53618254     0.78300
C552        C  0.62871535  0.84157199  0.54575410     0.77300
Zn553      Zn  0.61248298  0.99615100  0.14594960     1.49700
Zn554      Zn  0.60555053  0.99903815  0.20652598     1.49400
Zn555      Zn  0.65655534  0.96785773  0.18490386     1.49100
Zn556      Zn  0.65713370  0.02774336  0.18050202     1.49500
O557        O  0.63248380  0.99763023  0.17938893    -1.84000
O558        O  0.56982635  0.99473714  0.14880854    -0.74600
O559        O  0.61213372  0.96953077  0.23272923    -0.74400
O560        O  0.66125727  0.94849290  0.15060597    -0.73900
O561        O  0.56678652  0.99419154  0.19268271    -0.74600
O562        O  0.62587630  0.96341875  0.12728084    -0.74200
O563        O  0.63872062  0.94245315  0.20905240    -0.74800
O564        O  0.69207927  0.02114193  0.20186034    -0.74200
O565        O  0.60674904  0.03555979  0.22205600    -0.74900
O566        O  0.69194411  0.97717307  0.20344087    -0.74300
O567        O  0.63807895  0.05740499  0.19844842    -0.74800
O568        O  0.66344684  0.04058842  0.14302296    -0.74700
O569        O  0.62555188  0.02703533  0.12339377    -0.74500
C570        C  0.55520079  0.99336963  0.16992027     0.77300
C571        C  0.62290366  0.94678570  0.22848912     0.77800
C572        C  0.64569020  0.94749449  0.13040695     0.76700
C573        C  0.70285442  0.99937417  0.20972951     0.77100
C574        C  0.61881657  0.05693752  0.21509195     0.78300
C575        C  0.64706328  0.04100915  0.12334077     0.77300
Zn576      Zn  0.33256386  0.96522464  0.17920136     1.49700
Zn577      Zn  0.38480234  0.99206923  0.20319897     1.49400
Zn578      Zn  0.37707317  0.99413761  0.14243619     1.49100
Zn579      Zn  0.33455118  0.02540103  0.18139035     1.49500
O580        O  0.35775204  0.99452741  0.17632201    -1.84000
O581        O  0.35130152  0.93500690  0.19660145    -0.74600
O582        O  0.42352826  0.99158969  0.18888490    -0.74400
O583        O  0.36113030  0.96381960  0.12111997    -0.73900
O584        O  0.38022907  0.95759095  0.22226365    -0.74600
O585        O  0.32342069  0.95220793  0.14260685    -0.74200
O586        O  0.41996921  0.99191766  0.14496522    -0.74800
O587        O  0.33021913  0.04380332  0.14570508    -0.74200
O588        O  0.38190965  0.02388923  0.22676795    -0.74900
O589        O  0.36516077  0.02717711  0.12270349    -0.74300
O590        O  0.35434056  0.05101059  0.20422442    -0.74800
O591        O  0.29926695  0.01764692  0.20259620    -0.74700
O592        O  0.29967011  0.97364051  0.20248141    -0.74500
C593        C  0.36897530  0.93595388  0.21485458     0.77300
C594        C  0.43486237  0.99130384  0.16595300     0.77800
C595        C  0.33901968  0.95078894  0.12240478     0.76700
C596        C  0.34567292  0.04363581  0.12523281     0.77100
C597        C  0.37123287  0.04669270  0.22277931     0.78300
C598        C  0.28917034  0.99547433  0.21048266     0.77300
Zn599      Zn  0.49280167  0.14051115  0.27998005     1.49700
Zn600      Zn  0.49950821  0.17088630  0.33387045     1.49400
Zn601      Zn  0.46791565  0.11352186  0.33263945     1.49100
Zn602      Zn  0.52736524  0.11258428  0.32579420     1.49500
O603        O  0.49674914  0.13491885  0.31797288    -1.84000
O604        O  0.48937513  0.17910693  0.26934842    -0.74600
O605        O  0.46893424  0.17471418  0.36066832    -0.74400
O606        O  0.43861737  0.11342193  0.30605392    -0.73900
O607        O  0.49864709  0.20247669  0.30575721    -0.74600
O608        O  0.45947628  0.12198655  0.26762950    -0.74200
O609        O  0.45375957  0.13270034  0.36497694    -0.74800
O610        O  0.51985816  0.07198326  0.33126495    -0.74200
O611        O  0.53350634  0.17159693  0.35647157    -0.74900
O612        O  0.47628306  0.07266170  0.33845313    -0.74300
O613        O  0.54733903  0.12895410  0.35602937    -0.74800
O614        O  0.55160622  0.11489595  0.29501366    -0.74700
O615        O  0.52597602  0.12798568  0.26116535    -0.74500
C616        C  0.49302702  0.20152206  0.28073006     0.77300
C617        C  0.45427789  0.15718439  0.37221333     0.77800
C618        C  0.43885978  0.11422670  0.28061836     0.76700
C619        C  0.49809268  0.05926420  0.33591193     0.77100
C620        C  0.54906455  0.15291592  0.36450246     0.78300
C621        C  0.54839331  0.11980236  0.27028071     0.77300
Zn622      Zn  0.52190811  0.88447711  0.33450238     1.49700
Zn623      Zn  0.46343641  0.88645661  0.32763132     1.49400
Zn624      Zn  0.49772433  0.85783727  0.28160900     1.49100
Zn625      Zn  0.48905413  0.82772477  0.33541372     1.49500
O626        O  0.49320767  0.86346636  0.31949785    -1.84000
O627        O  0.51521271  0.92594784  0.33838545    -0.74600
O628        O  0.43959995  0.88451023  0.29683743    -0.74400
O629        O  0.53204306  0.87560338  0.27052826    -0.73900
O630        O  0.47146039  0.92690841  0.33307002    -0.74600
O631        O  0.55252994  0.88153906  0.30968490    -0.74200
O632        O  0.46457727  0.87086456  0.26269264    -0.74800
O633        O  0.49129804  0.79616374  0.30751804    -0.74200
O634        O  0.44241346  0.87011773  0.35714071    -0.74900
O635        O  0.50083875  0.81900417  0.27074640    -0.74300
O636        O  0.45325996  0.82681706  0.35504758    -0.74800
O637        O  0.51752791  0.82437573  0.36450442    -0.74700
O638        O  0.53268085  0.86642533  0.36843382    -0.74500
C639        C  0.49348064  0.93954560  0.33651270     0.77300
C640        C  0.44228818  0.87912929  0.27216288     0.77800
C641        C  0.55286507  0.88143466  0.28423977     0.76700
C642        C  0.49695482  0.79677702  0.28248754     0.77100
C643        C  0.43828482  0.84578314  0.36348397     0.78300
C644        C  0.53124352  0.84228706  0.37662854     0.77300
Zn645      Zn  0.66303822  0.18024322  0.02979047     1.49700
Zn646      Zn  0.66424707  0.18346620  0.96924567     1.49400
Zn647      Zn  0.62018003  0.14560008  0.99796376     1.49100
Zn648      Zn  0.61202213  0.20598904  0.99932958     1.49500
O649        O  0.63954463  0.17896406  0.99880868    -1.84000
O650        O  0.69686322  0.20327754  0.02382100    -0.74600
O651        O  0.66895820  0.14779997  0.95040280    -0.74400
O652        O  0.63250361  0.12362286  0.02896353    -0.73900
O653        O  0.69931385  0.20289495  0.97972077    -0.74600
O654        O  0.67032772  0.14277142  0.04305346    -0.74200
O655        O  0.63305833  0.12579973  0.96574187    -0.74800
O656        O  0.57308297  0.19208151  0.99427088    -0.74200
O657        O  0.64673392  0.20816575  0.94353596    -0.74900
O658        O  0.57832381  0.14844669  0.99820654    -0.74300
O659        O  0.61915501  0.23202782  0.96952534    -0.74800
O660        O  0.61177279  0.22117311  0.03621593    -0.74700
O661        O  0.64202224  0.19697728  0.05891520    -0.74500
C662        C  0.70853840  0.21068545  0.00226028     0.77300
C663        C  0.65317195  0.12762445  0.94995909     0.77800
C664        C  0.65355290  0.12345395  0.04355411     0.76700
C665        C  0.56284653  0.16872928  0.99589481     0.77100
C666        C  0.63076968  0.22771517  0.94713993     0.78300
C667        C  0.62248199  0.21326305  0.05802061     0.77300
Zn668      Zn  0.39074311  0.16685422  0.02605556     1.49700
Zn669      Zn  0.33269503  0.15783126  0.99783792     1.49400
Zn670      Zn  0.36186530  0.21187259  0.99024234     1.49100
Zn671      Zn  0.38932756  0.16101376  0.96675372     1.49500
O672        O  0.36807625  0.17453357  0.99562937    -1.84000
O673        O  0.37470243  0.13591534  0.04590540    -0.74600
O674        O  0.30047509  0.18523473  0.99639459    -0.74400
O675        O  0.37386608  0.23076085  0.02296911    -0.73900
O676        O  0.33219372  0.13433931  0.03105460    -0.74600
O677        O  0.38813343  0.19823211  0.04969814    -0.74200
O678        O  0.32298432  0.22189068  0.98558805    -0.74800
O679        O  0.38522970  0.18522191  0.93589185    -0.74200
O680        O  0.33040613  0.13191968  0.96692944    -0.74900
O681        O  0.38132383  0.22384851  0.95742542    -0.74300
O682        O  0.37369024  0.12622009  0.95565042    -0.74800
O683        O  0.43045051  0.16032483  0.97370241    -0.74700
O684        O  0.43168476  0.16248032  0.01779340    -0.74500
C685        C  0.35085862  0.12650758  0.04679636     0.77300
C686        C  0.30079326  0.20999984  0.98974756     0.77800
C687        C  0.38260837  0.22270800  0.04547824     0.76700
C688        C  0.38682779  0.21054300  0.93640438     0.77100
C689        C  0.34896027  0.11960159  0.95428199     0.78300
C690        C  0.44401448  0.16152536  0.99535726     0.77300
Zn691      Zn  0.47748469  0.33512266  0.10885364     1.49700
Zn692      Zn  0.50674961  0.33593109  0.16686060     1.49400
Zn693      Zn  0.49794898  0.28186679  0.13813105     1.49100
Zn694      Zn  0.53604800  0.32419240  0.11015040     1.49500
O695        O  0.50447177  0.31909073  0.13154991    -1.84000
O696        O  0.46568035  0.36936332  0.12572357    -0.74600
O697        O  0.50460034  0.30871191  0.19923407    -0.74400
O698        O  0.46428995  0.27160673  0.11933419    -0.73900
O699        O  0.47619971  0.36312604  0.16889954    -0.74600
O700        O  0.44594055  0.31114916  0.10997156    -0.74200
O701        O  0.49226744  0.27262826  0.17677806    -0.74800
O702        O  0.55904730  0.29293286  0.11592598    -0.74200
O703        O  0.54090234  0.35828398  0.16719429    -0.74900
O704        O  0.53057200  0.26071579  0.12770187    -0.74300
O705        O  0.55548019  0.35594625  0.12475357    -0.74800
O706        O  0.52947050  0.32619315  0.06910400    -0.74700
O707        O  0.48686555  0.33825367  0.06802549    -0.74500
C708        C  0.46396052  0.37589479  0.15035824     0.77300
C709        C  0.49707979  0.28418586  0.19890959     0.77800
C710        C  0.44449089  0.28583218  0.11165150     0.76700
C711        C  0.55411827  0.26862925  0.12138952     0.77100
C712        C  0.55639121  0.36591305  0.14824220     0.78300
C713        C  0.50850945  0.33216216  0.05559861     0.77300
Zn714      Zn  0.53830094  0.31646590  0.83678595     1.49700
Zn715      Zn  0.47716797  0.31059245  0.83521438     1.49400
Zn716      Zn  0.50981021  0.28953718  0.88708440     1.49100
Zn717      Zn  0.50268399  0.34972738  0.87927088     1.49500
O718        O  0.50690531  0.31659426  0.85987866    -1.84000
O719        O  0.53236097  0.29412064  0.80246995    -0.74600
O720        O  0.45211656  0.28560264  0.85300399    -0.74400
O721        O  0.54475426  0.27064504  0.88282920    -0.73900
O722        O  0.48800477  0.29156996  0.80034601    -0.74600
O723        O  0.56805657  0.29884453  0.85705516    -0.74200
O724        O  0.47828670  0.26542141  0.88326633    -0.74800
O725        O  0.50326199  0.34693301  0.92126421    -0.74200
O726        O  0.45635017  0.34476385  0.82978052    -0.74900
O727        O  0.50963527  0.30360556  0.92615091    -0.74300
O728        O  0.46894544  0.36747559  0.86614320    -0.74800
O729        O  0.53221898  0.37348761  0.86658474    -0.74700
O730        O  0.55055187  0.35455668  0.83065457    -0.74500
C731        C  0.51109831  0.28529271  0.79111304     0.77300
C732        C  0.45610843  0.26783781  0.87072539     0.77800
C733        C  0.56687005  0.27953741  0.87355190     0.76700
C734        C  0.50662805  0.32671183  0.93662586     0.77100
C735        C  0.45390568  0.36462318  0.84562281     0.78300
C736        C  0.54824820  0.37435018  0.84662629     0.77300
Zn737      Zn  0.20646542  0.38554614  0.98435343     1.49700
Zn738      Zn  0.18761097  0.33480949  0.01881626     1.49400
Zn739      Zn  0.14568476  0.37606736  0.99143410     1.49100
Zn740      Zn  0.18168106  0.33223596  0.95907108     1.49500
O741        O  0.18015917  0.35769364  0.98844036    -1.84000
O742        O  0.23272226  0.38339821  0.01472155    -0.74600
O743        O  0.15446864  0.33009229  0.04075556    -0.74400
O744        O  0.14726547  0.41872517  0.98846688    -0.73900
O745        O  0.21208268  0.35467841  0.04212785    -0.74600
O746        O  0.19113855  0.42375597  0.98481821    -0.74200
O747        O  0.12933294  0.36453740  0.02676240    -0.74800
O748        O  0.14395758  0.32326184  0.94820362    -0.74200
O749        O  0.20733088  0.29972173  0.01050374    -0.74900
O750        O  0.12217669  0.35956141  0.96287299    -0.74300
O751        O  0.20561790  0.29906531  0.96641604    -0.74800
O752        O  0.19717015  0.35111192  0.92766946    -0.74700
O753        O  0.22236512  0.38205885  0.94801619    -0.74500
C754        C  0.22977909  0.37233265  0.03754076     0.77300
C755        C  0.13414996  0.34542850  0.04305854     0.77800
C756        C  0.16776386  0.43416727  0.98589946     0.76700
C757        C  0.12314396  0.33817463  0.94882621     0.77100
C758        C  0.21399698  0.28891520  0.98837801     0.78300
C759        C  0.21416423  0.37002395  0.92706821     0.77300
Zn760      Zn  0.17446214  0.60831891  0.96124419     1.49700
Zn761      Zn  0.21587884  0.63556866  0.00198425     1.49400
Zn762      Zn  0.16275710  0.66488045  0.99111798     1.49100
Zn763      Zn  0.15981651  0.60588011  0.01811133     1.49500
O764        O  0.17870952  0.62909978  0.99325214    -1.84000
O765        O  0.20710245  0.61410531  0.93987037    -0.74600
O766        O  0.22616314  0.67475177  0.00630876    -0.74400
O767        O  0.13893901  0.66539094  0.95817743    -0.73900
O768        O  0.23807737  0.62317660  0.97086656    -0.74600
O769        O  0.14282544  0.62373621  0.94200521    -0.74200
O770        O  0.19059250  0.69702344  0.99197961    -0.74800
O771        O  0.12679755  0.62475031  0.03092056    -0.74200
O772        O  0.22380937  0.61619655  0.03633537    -0.74900
O773        O  0.13691740  0.66760358  0.02257192    -0.74300
O774        O  0.18322285  0.60273180  0.04969591    -0.74800
O775        O  0.15358441  0.56584033  0.00698042    -0.74700
O776        O  0.17091824  0.56686515  0.96650408    -0.74500
C777        C  0.23145323  0.61757614  0.94682903     0.77300
C778        C  0.21501757  0.69686004  0.00024361     0.77800
C779        C  0.13170844  0.64672798  0.94228303     0.76700
C780        C  0.12286323  0.64972749  0.03438260     0.77100
C781        C  0.20832044  0.60520175  0.05353323     0.78300
C782        C  0.16137386  0.55334018  0.98605330     0.77300
Zn783      Zn  0.32866686  0.52191604  0.11048401     1.49700
Zn784      Zn  0.33906765  0.49355658  0.16880366     1.49400
Zn785      Zn  0.28398410  0.48724263  0.14019136     1.49100
Zn786      Zn  0.33512046  0.46256173  0.11230396     1.49500
O787        O  0.32171025  0.49168963  0.13361652    -1.84000
O788        O  0.35900141  0.54231249  0.12662979    -0.74600
O789        O  0.31172018  0.49056969  0.20127969    -0.74400
O790        O  0.26453355  0.52014590  0.12871482    -0.73900
O791        O  0.36077011  0.52811353  0.16924847    -0.74600
O792        O  0.29707581  0.54566249  0.11225430    -0.74200
O793        O  0.27435285  0.48193325  0.17889445    -0.74800
O794        O  0.30999400  0.43244566  0.11673376    -0.74200
O795        O  0.36731851  0.46392664  0.17031273    -0.74900
O796        O  0.27184962  0.45540809  0.11960307    -0.74300
O797        O  0.37043678  0.45083281  0.12753674    -0.74800
O798        O  0.33583160  0.46934980  0.07100734    -0.74700
O799        O  0.33349161  0.51331062  0.06975358    -0.74500
C800        C  0.36817785  0.54383024  0.15042781     0.77300
C801        C  0.28656241  0.48474158  0.20105299     0.77800
C802        C  0.27267398  0.54214466  0.11876729     0.76700
C803        C  0.28471298  0.43423446  0.11360188     0.77100
C804        C  0.37892015  0.45077511  0.15164183     0.78300
C805        C  0.33483037  0.49097031  0.05738883     0.77300
Zn806      Zn  0.29150562  0.49037975  0.88846084     1.49700
Zn807      Zn  0.35216435  0.49026104  0.88179230     1.49400
Zn808      Zn  0.31506137  0.46372319  0.83458602     1.49100
Zn809      Zn  0.31868160  0.52341502  0.83959247     1.49500
O810        O  0.31916131  0.49148340  0.86147867    -1.84000
O811        O  0.30432849  0.48397863  0.92766067    -0.74600
O812        O  0.37209452  0.45829568  0.86802054    -0.74400
O813        O  0.28965925  0.43715537  0.84941706    -0.73900
O814        O  0.34812682  0.49006139  0.92380023    -0.74600
O815        O  0.26576282  0.46091308  0.87892008    -0.74200
O816        O  0.35115197  0.44518782  0.83053281    -0.74800
O817        O  0.29575783  0.51962286  0.80559583    -0.74200
O818        O  0.37497559  0.52135521  0.87058400    -0.74900
O819        O  0.29602462  0.47599022  0.79949349    -0.74300
O820        O  0.35654152  0.53694579  0.83328933    -0.74800
O821        O  0.30179701  0.55106151  0.86193782    -0.74700
O822        O  0.27616494  0.52714075  0.89001826    -0.74500
C823        C  0.32739932  0.48647371  0.93861535     0.77300
C824        C  0.37096157  0.44400302  0.84686604     0.77800
C825        C  0.27003066  0.43955487  0.86553960     0.76700
C826        C  0.28810413  0.49923219  0.79228349     0.77100
C827        C  0.37589881  0.53650853  0.85011436     0.78300
C828        C  0.28497754  0.54932115  0.88095273     0.77300
Zn829      Zn  0.00901308  0.67036548  0.16286667     1.49700
Zn830      Zn  0.98282087  0.61282079  0.17515935     1.49400
Zn831      Zn  0.04190180  0.61389436  0.16429975     1.49100
Zn832      Zn  0.02095581  0.64193416  0.21738572     1.49500
O833        O  0.01376996  0.63536281  0.18008330    -1.84000
O834        O  0.97353587  0.67013046  0.14212822    -0.74600
O835        O  0.99072640  0.57270411  0.16993380    -0.74400
O836        O  0.05207646  0.63092767  0.12998060    -0.73900
O837        O  0.96173078  0.62707547  0.14455876    -0.74600
O838        O  0.03758934  0.67323959  0.13335146    -0.74200
O839        O  0.03368672  0.57344302  0.15978690    -0.74800
O840        O  0.05463513  0.62258380  0.22760358    -0.74200
O841        O  0.96061736  0.61551335  0.20762498    -0.74900
O842        O  0.07367337  0.61440087  0.18809790    -0.74300
O843        O  0.98932759  0.62936068  0.23875589    -0.74800
O844        O  0.02475550  0.68097657  0.22691677    -0.74700
O845        O  0.01044432  0.70216520  0.19054735    -0.74500
C846        C  0.95898008  0.65041349  0.13474888     0.77300
C847        C  0.01214477  0.56013256  0.16376451     0.77800
C848        C  0.05069237  0.65481544  0.12125249     0.76700
C849        C  0.07430405  0.61425767  0.21353049     0.77100
C850        C  0.96618444  0.62088058  0.23182140     0.78300
C851        C  0.01798539  0.70250081  0.21512193     0.77300
Zn852      Zn  0.04088908  0.38690879  0.17118473     1.49700
Zn853      Zn  0.00886543  0.33135969  0.15917135     1.49400
Zn854      Zn  0.99937750  0.36228497  0.21261505     1.49100
Zn855      Zn  0.98356692  0.38936411  0.15679861     1.49500
O856        O  0.00840534  0.36675901  0.17554226    -1.84000
O857        O  0.06123316  0.36995119  0.14134675    -0.74600
O858        O  0.00612886  0.30022492  0.18749666    -0.74400
O859        O  0.03111840  0.37393359  0.23534921    -0.73900
O860        O  0.04277224  0.32937470  0.13671976    -0.74600
O861        O  0.06174850  0.38220796  0.20407534    -0.74200
O862        O  0.99350554  0.32370890  0.22298457    -0.74800
O863        O  0.95020198  0.39041254  0.17739481    -0.74200
O864        O  0.97797028  0.32991732  0.13211111    -0.74900
O865        O  0.96503920  0.38257711  0.21890890    -0.74300
O866        O  0.97409332  0.37319265  0.12193848    -0.74800
O867        O  0.99368668  0.42909552  0.15405706    -0.74700
O868        O  0.03605247  0.42799505  0.16643461    -0.74500
C869        C  0.06036376  0.34691415  0.13040484     0.77300
C870        C  0.99852710  0.30127411  0.21202813     0.77800
C871        C  0.05538107  0.37880076  0.22841674     0.76700
C872        C  0.94709146  0.39083275  0.20257120     0.77100
C873        C  0.96885185  0.34873238  0.11730452     0.78300
C874        C  0.01533352  0.44149937  0.15973990     0.77300
Zn875      Zn  0.11531949  0.48997127  0.30056528     1.49700
Zn876      Zn  0.12635175  0.49760396  0.36046225     1.49400
Zn877      Zn  0.16658913  0.46067315  0.32533520     1.49100
Zn878      Zn  0.16912959  0.52122858  0.31743532     1.49500
O879        O  0.14406095  0.49248916  0.32614161    -1.84000
O880        O  0.07721657  0.49168283  0.31628385    -0.74600
O881        O  0.14081197  0.46895790  0.38488349    -0.74400
O882        O  0.14434634  0.43083706  0.31030856    -0.73900
O883        O  0.08368515  0.49704765  0.35969809    -0.74600
O884        O  0.11637448  0.45411856  0.28419970    -0.74200
O885        O  0.17500561  0.44972792  0.36347232    -0.74800
O886        O  0.20379023  0.50918538  0.29866573    -0.74200
O887        O  0.14023083  0.53235013  0.37533347    -0.74900
O888        O  0.19992116  0.46516200  0.30058080    -0.74300
O889        O  0.17520842  0.54420159  0.34963456    -0.74800
O890        O  0.15165891  0.54499249  0.29098777    -0.74700
O891        O  0.11890115  0.51964220  0.27411333    -0.74500
C892        C  0.06763555  0.49419561  0.33981017     0.77300
C893        C  0.16068629  0.45272451  0.38450170     0.77800
C894        C  0.12572584  0.43210917  0.29293626     0.76700
C895        C  0.21205797  0.48601724  0.29192834     0.77100
C896        C  0.16015827  0.54754996  0.37001020     0.78300
C897        C  0.13290168  0.54097111  0.27424054     0.77300
Zn898      Zn  0.89531911  0.52350190  0.34334875     1.49700
Zn899      Zn  0.83680445  0.49449299  0.33667283     1.49400
Zn900      Zn  0.86729195  0.51141557  0.28588579     1.49100
Zn901      Zn  0.89426796  0.46780442  0.32368976     1.49500
O902        O  0.87301315  0.49965743  0.32213743    -1.84000
O903        O  0.87402491  0.53352539  0.37574118    -0.74600
O904        O  0.80609422  0.49645288  0.30769977    -0.74400
O905        O  0.88754544  0.54544868  0.28111535    -0.73900
O906        O  0.83151279  0.52278946  0.36538949    -0.74600
O907        O  0.90050116  0.55661228  0.32238895    -0.74200
O908        O  0.82824230  0.51629601  0.27485136    -0.74800
O909        O  0.89073350  0.44978138  0.28912338    -0.74200
O910        O  0.83651697  0.45918949  0.35675717    -0.74900
O911        O  0.88050048  0.48287339  0.26118156    -0.74300
O912        O  0.87853255  0.44447286  0.35164500    -0.74800
O913        O  0.93502253  0.47328644  0.32987508    -0.74700
O914        O  0.93527479  0.51186031  0.35072983    -0.74500
C915        C  0.84874540  0.53452920  0.38030381     0.77300
C916        C  0.80630581  0.50729336  0.28443109     0.77800
C917        C  0.89900945  0.56137131  0.29747070     0.76700
C918        C  0.88731389  0.45874394  0.26556807     0.77100
C919        C  0.85525984  0.44252863  0.36207794     0.78300
C920        C  0.94823691  0.49177978  0.34150407     0.77300
Zn921      Zn  0.17620624  0.03533491  0.65747168     1.49700
Zn922      Zn  0.13955642  0.00362834  0.61413256     1.49400
Zn923      Zn  0.20041371  0.00731350  0.60514899     1.49100
Zn924      Zn  0.17857618  0.97474439  0.65572364     1.49500
O925        O  0.17366882  0.00540763  0.63271909    -1.84000
O926        O  0.13805481  0.04702461  0.66627503    -0.74600
O927        O  0.14132458  0.00586968  0.57212032    -0.74400
O928        O  0.21811123  0.04274312  0.60772554    -0.73900
O929        O  0.11639784  0.03231835  0.63003631    -0.74600
O930        O  0.19335732  0.06564763  0.63727492    -0.74200
O931        O  0.18541010  0.00670135  0.56674658    -0.74800
O932        O  0.20227135  0.94963854  0.63688806    -0.74200
O933        O  0.12123858  0.96978578  0.62533101    -0.74900
O934        O  0.22530810  0.97605885  0.60904608    -0.74300
O935        O  0.14367366  0.95539047  0.66119441    -0.74800
O936        O  0.19892982  0.98278360  0.69018077    -0.74700
O937        O  0.20030073  0.02681895  0.69075057    -0.74500
C938        C  0.11699912  0.04607639  0.65159420     0.77300
C939        C  0.16185293  0.00685527  0.55665703     0.77800
C940        C  0.21070206  0.06458491  0.61856297     0.76700
C941        C  0.22114773  0.95351469  0.62025732     0.77100
C942        C  0.12354806  0.95424204  0.64542179     0.78300
C943        C  0.20759553  0.00432715  0.70065517     0.77300
Zn944      Zn  0.20813533  0.99428890  0.35592274     1.49700
Zn945      Zn  0.15376975  0.97628444  0.38484967     1.49400
Zn946      Zn  0.16723446  0.03408471  0.38457550     1.49100
Zn947      Zn  0.15512833  0.00663156  0.32728894     1.49500
O948        O  0.17122610  0.00268939  0.36273928    -1.84000
O949        O  0.21748350  0.96105222  0.37559528    -0.74600
O950        O  0.14829646  0.98599447  0.42515989    -0.74400
O951        O  0.19978192  0.05578234  0.37999855    -0.73900
O952        O  0.17733139  0.94443265  0.38639817    -0.74600
O953        O  0.22990807  0.02545307  0.36726237    -0.74200
O954        O  0.16339278  0.02731545  0.42528281    -0.74800
O955        O  0.13261228  0.04030482  0.32786831    -0.74200
O956        O  0.12025288  0.96554337  0.36613680    -0.74900
O957        O  0.13637333  0.05468225  0.37017987    -0.74300
O958        O  0.12758513  0.97676367  0.32329647    -0.74800
O959        O  0.18354428  0.00697222  0.29582577    -0.74700
O960        O  0.21841506  0.98960824  0.31724978    -0.74500
C961        C  0.20279113  0.94248731  0.38509581     0.77300
C962        C  0.15503395  0.00691330  0.43819309     0.77800
C963        C  0.22380421  0.04907854  0.37456309     0.76700
C964        C  0.12582606  0.05582526  0.34698305     0.77100
C965        C  0.11405349  0.96459822  0.34136226     0.78300
C966        C  0.20771010  0.99798533  0.29573843     0.77300
Zn967      Zn  0.34108557  0.11140560  0.46973188     1.49700
Zn968      Zn  0.33913447  0.16844525  0.50046421     1.49400
Zn969      Zn  0.28521008  0.13846167  0.48995492     1.49100
Zn970      Zn  0.32796477  0.11036150  0.52737368     1.49500
O971        O  0.32309232  0.13280268  0.49667839    -1.84000
O972        O  0.37303879  0.13134959  0.45605654    -0.74600
O973        O  0.31023238  0.19938547  0.50090113    -0.74400
O974        O  0.27592192  0.11899852  0.45619671    -0.73900
O975        O  0.36538379  0.17347538  0.46928312    -0.74600
O976        O  0.31635348  0.10911383  0.43936060    -0.74200
O977        O  0.27483226  0.17728568  0.48549833    -0.74800
O978        O  0.29584440  0.11386030  0.55002881    -0.74200
O979        O  0.36169624  0.16797393  0.53462507    -0.74900
O980        O  0.26360931  0.12666927  0.52222270    -0.74300
O981        O  0.35806063  0.12557197  0.54840445    -0.74800
O982        O  0.33270494  0.06987849  0.51969250    -0.74700
O983        O  0.34809943  0.07107236  0.47849925    -0.74500
C984        C  0.37814233  0.15632134  0.45516777     0.77300
C985        C  0.28574479  0.19911417  0.49280564     0.77800
C986        C  0.29092450  0.10976083  0.43763674     0.76700
C987        C  0.27130708  0.11918771  0.54537684     0.77100
C988        C  0.36791394  0.14897804  0.55062571     0.78300
C989        C  0.34138186  0.05745657  0.49908385     0.77300
Zn990      Zn  0.28036099  0.85774470  0.50758022     1.49700
Zn991      Zn  0.32478812  0.88605776  0.47072802     1.49400
Zn992      Zn  0.33375262  0.88410296  0.52975779     1.49100
Zn993      Zn  0.33384028  0.82698143  0.49836673     1.49500
O994        O  0.31810375  0.86314022  0.50136253    -1.84000
O995        O  0.25968420  0.87188630  0.47656066    -0.74600
O996        O  0.33446515  0.92609275  0.47811218    -0.74400
O997        O  0.30979837  0.88233041  0.56127469    -0.73900
O998        O  0.29143434  0.88748149  0.44949905    -0.74600
O999        O  0.27037484  0.87627782  0.54133912    -0.74200
O1000       O  0.33802868  0.92490348  0.52201439    -0.74800
O1001       O  0.36325125  0.82417014  0.52680175    -0.74200
O1002       O  0.35145130  0.86740438  0.44796436    -0.74900
O1003       O  0.36795056  0.86658759  0.54043340    -0.74300
O1004       O  0.35320994  0.82510883  0.46242210    -0.74800
O1005       O  0.30559333  0.79547265  0.50206940    -0.74700
O1006       O  0.26925154  0.81919820  0.51121652    -0.74500
C1007       C  0.26692021  0.88233422  0.45451127     0.77300
C1008       C  0.33757785  0.93840815  0.50030145     0.77800
C1009       C  0.28432303  0.88323029  0.56158021     0.76700
C1010       C  0.37575500  0.84231549  0.53984922     0.77100
C1011       C  0.35961619  0.84333405  0.44563944     0.78300
C1012       C  0.28047984  0.79658726  0.50784368     0.77300
Zn1013     Zn  0.01786856  0.15831805  0.61156481     1.49700
Zn1014     Zn  0.00736047  0.21461543  0.64092043     1.49400
Zn1015     Zn  0.96290366  0.17910698  0.61388313     1.49100
Zn1016     Zn  0.99069161  0.16200667  0.66956509     1.49500
O1017       O  0.99488412  0.17895277  0.63471403    -1.84000
O1018       O  0.05299460  0.17617168  0.61098858    -0.74600
O1019       O  0.97955186  0.24024394  0.62674416    -0.74400
O1020       O  0.96886553  0.17816169  0.57258582    -0.73900
O1021       O  0.04339750  0.21801912  0.62306291    -0.74600
O1022       O  0.00756877  0.15698618  0.57098305    -0.74200
O1023       O  0.94467385  0.21282659  0.62159510    -0.74800
O1024       O  0.95574486  0.14092924  0.66827316    -0.74200
O1025       O  0.01021335  0.22426446  0.68015462    -0.74900
O1026       O  0.93993199  0.14931358  0.62718596    -0.74300
O1027       O  0.99182098  0.18994086  0.70150518    -0.74800
O1028       O  0.02036585  0.13368693  0.67204873    -0.74700
O1029       O  0.02481888  0.12311585  0.62874086    -0.74500
C1030       C  0.05930937  0.20062789  0.61303054     0.77300
C1031       C  0.95455096  0.23622770  0.62266230     0.77800
C1032       C  0.98797448  0.16814201  0.55874625     0.76700
C1033       C  0.93874190  0.13695677  0.64949042     0.77100
C1034       C  0.00149354  0.21375736  0.70171184     0.78300
C1035       C  0.02926962  0.11841949  0.65345145     0.77300
Zn1036     Zn  0.02464602  0.19085484  0.33863145     1.49700
Zn1037     Zn  0.96401613  0.18688448  0.33830503     1.49400
Zn1038     Zn  0.99507217  0.15236892  0.38238606     1.49100
Zn1039     Zn  0.99195435  0.21287012  0.38988024     1.49500
O1040       O  0.99420092  0.18575462  0.36271330    -1.84000
O1041       O  0.01559266  0.20970826  0.30292321    -0.74600
O1042       O  0.95000960  0.14970291  0.33191557    -0.74400
O1043       O  0.02804318  0.13324324  0.37010725    -0.73900
O1044       O  0.97121734  0.20890498  0.30423069    -0.74600
O1045       O  0.04371345  0.15564803  0.33464293    -0.74200
O1046       O  0.96430281  0.12965311  0.36921466    -0.74800
O1047       O  0.99122207  0.19916203  0.42925501    -0.74200
O1048       O  0.93468317  0.20506543  0.35754311    -0.74900
O1049       O  0.99426028  0.15545867  0.42437460    -0.74300
O1050       O  0.95761216  0.23232527  0.38468368    -0.74800
O1051       O  0.02390178  0.23638852  0.38598302    -0.74700
O1052       O  0.05008518  0.21575237  0.35615073    -0.74500
C1053       C  0.99296329  0.21683207  0.29319036     0.77300
C1054       C  0.94961486  0.13007081  0.34824037     0.77800
C1055       C  0.04392379  0.13535226  0.35017213     0.76700
C1056       C  0.99242477  0.17587670  0.43972851     0.77100
C1057       C  0.93572881  0.22385916  0.37452955     0.78300
C1058       C  0.04607810  0.23393950  0.37344445     0.77300
Zn1059     Zn  0.11078500  0.31983420  0.53233295     1.49700
Zn1060     Zn  0.16994949  0.33200621  0.50711599     1.49400
Zn1061     Zn  0.14044479  0.27887580  0.49336614     1.49100
Zn1062     Zn  0.11408956  0.33319920  0.47483981     1.49500
O1063       O  0.13447014  0.31570381  0.50216002    -1.84000
O1064       O  0.12556390  0.34911710  0.55459518    -0.74600
O1065       O  0.20193785  0.30406479  0.50445747    -0.74400
O1066       O  0.12852012  0.25638357  0.52441291    -0.73900
O1067       O  0.16880827  0.35228383  0.54259598    -0.74600
O1068       O  0.11425847  0.28690770  0.55349001    -0.74200
O1069       O  0.17941211  0.26923179  0.48879543    -0.74800
O1070       O  0.11815947  0.31235439  0.44182333    -0.74200
O1071       O  0.17378202  0.36128235  0.47879538    -0.74900
O1072       O  0.12189275  0.27125329  0.45859020    -0.74300
O1073       O  0.13086287  0.36833878  0.46742619    -0.74800
O1074       O  0.07278446  0.33513138  0.48097003    -0.74700
O1075       O  0.06998868  0.32529763  0.52390801    -0.74500
C1076       C  0.14908900  0.35868463  0.55779160     0.77300
C1077       C  0.20158671  0.28011726  0.49520528     0.77800
C1078       C  0.12056509  0.26299881  0.54777131     0.76700
C1079       C  0.11674183  0.28715919  0.43928335     0.77100
C1080       C  0.15555973  0.37513308  0.46718698     0.78300
C1081       C  0.05844812  0.33082201  0.50173678     0.77300
Zn1082     Zn  0.83794453  0.31535762  0.47160889     1.49700
Zn1083     Zn  0.89015727  0.29326025  0.50062770     1.49400
Zn1084     Zn  0.88197154  0.35308920  0.49860186     1.49100
Zn1085     Zn  0.83897438  0.31711008  0.53142817     1.49500
O1086       O  0.86260533  0.31985118  0.50067398    -1.84000
O1087       O  0.85583996  0.29178025  0.44588893    -0.74600
O1088       O  0.92884716  0.30676954  0.49464875    -0.74400
O1089       O  0.87098683  0.37043655  0.46377721    -0.73900
O1090       O  0.88239916  0.26688477  0.47182314    -0.74600
O1091       O  0.83271410  0.34989678  0.45205815    -0.74200
O1092       O  0.92417251  0.35010127  0.50144631    -0.74800
O1093       O  0.83058961  0.35490953  0.54360328    -0.74200
O1094       O  0.89208926  0.27914269  0.53745163    -0.74900
O1095       O  0.86719159  0.37563873  0.52807047    -0.74300
O1096       O  0.86193850  0.30285532  0.56074472    -0.74800
O1097       O  0.80600922  0.29147094  0.52495160    -0.74700
O1098       O  0.80380004  0.29486947  0.48103168    -0.74500
C1099       C  0.87143822  0.27199772  0.44933603     0.77300
C1100       C  0.93942093  0.32973508  0.49805976     0.77800
C1101       C  0.85028483  0.36816649  0.44880648     0.76700
C1102       C  0.84630843  0.37521153  0.54288440     0.77100
C1103       C  0.88259768  0.28796830  0.55943199     0.78300
C1104       C  0.79492209  0.28483077  0.50274497     0.77300
C1105       C  0.98511952  0.31668223  0.48016765    -0.20100
C1106       C  0.96989753  0.33206139  0.49834833    -0.06700
C1107       C  0.98425333  0.34741801  0.51756709     0.14200
C1108       C  0.01284845  0.34661066  0.51833420    -0.20200
C1109       C  0.02799801  0.33150891  0.49987661    -0.06700
C1110       C  0.01365617  0.31652725  0.48039075     0.14100
C1111       C  0.02835635  0.29948031  0.46024875    -0.23500
H1112       H  0.97455072  0.30462124  0.46553789     0.15400
H1113       H  0.02348934  0.35803736  0.53341007     0.15500
C1114       C  0.96952036  0.36399352  0.53801443    -0.23500
H1115       H  0.01425792  0.28820609  0.44721077     0.05700
H1116       H  0.04136253  0.28479922  0.47076362     0.08900
H1117       H  0.04092933  0.31229714  0.44713268     0.08900
H1118       H  0.95582203  0.35106595  0.54988552     0.08900
H1119       H  0.95768241  0.37981349  0.52781904     0.08900
H1120       H  0.98359165  0.37396092  0.55210067     0.05700
C1121       C  0.09300195  0.23873019  0.38742887    -0.20100
C1122       C  0.06840837  0.25108708  0.38133639    -0.06700
C1123       C  0.06423769  0.27817527  0.38785343     0.14200
C1124       C  0.08298061  0.29091344  0.40414790    -0.20200
C1125       C  0.10498000  0.27675113  0.41460166    -0.06700
C1126       C  0.11145771  0.25130517  0.40436685     0.14100
C1127       C  0.13725254  0.23723387  0.41168230    -0.23500
H1128       H  0.09654404  0.21823428  0.38130541     0.15400
H1129       H  0.07873789  0.31101634  0.41108084     0.15500
C1130       C  0.03963948  0.29334010  0.37872798    -0.23500
H1131       H  0.13971726  0.21834253  0.40025856     0.05700
H1132       H  0.13755042  0.23206124  0.43325276     0.08900
H1133       H  0.15464380  0.25035341  0.40696435     0.08900
H1134       H  0.02122357  0.28523169  0.38824931     0.08900
H1135       H  0.03779529  0.29196042  0.35662090     0.08900
H1136       H  0.04086916  0.31484177  0.38415734     0.05700
C1137       C  0.90014527  0.21766841  0.40655221    -0.20100
C1138       C  0.91106003  0.23360376  0.38622785    -0.06700
C1139       C  0.90351294  0.26047665  0.38351355     0.14200
C1140       C  0.88708294  0.27172842  0.40311986    -0.20200
C1141       C  0.87975017  0.25685552  0.42586760    -0.06700
C1142       C  0.88504100  0.22919510  0.42704109     0.14100
C1143       C  0.87606582  0.21210542  0.45027563    -0.23500
H1144       H  0.90622584  0.19689536  0.40819553     0.15400
H1145       H  0.88257329  0.29292266  0.40215342     0.15500
C1146       C  0.91426521  0.27751465  0.36103651    -0.23500
H1147       H  0.88045094  0.19061793  0.44673573     0.05700
H1148       H  0.85404015  0.21428384  0.45321897     0.08900
H1149       H  0.88675889  0.21797963  0.46884427     0.08900
H1150       H  0.90847584  0.26858938  0.34152167     0.08900
H1151       H  0.93653076  0.27871907  0.36221534     0.08900
H1152       H  0.90614999  0.29819190  0.36187098     0.05700
C1153       C  0.09717638  0.23205429  0.61162711    -0.20100
C1154       C  0.08440008  0.20969530  0.60064884    -0.06700
C1155       C  0.09197028  0.20051583  0.57486613     0.14200
C1156       C  0.10799256  0.21697098  0.55892326    -0.20200
C1157       C  0.11574827  0.24226526  0.56804247    -0.06700
C1158       C  0.11314458  0.24851433  0.59558766     0.14100
C1159       C  0.12589679  0.27292361  0.60796032    -0.23500
H1160       H  0.09250259  0.23809480  0.63195637     0.15400
H1161       H  0.11140927  0.21149871  0.53819967     0.15500
C1162       C  0.08091297  0.17518671  0.56266194    -0.23500
H1163       H  0.12453636  0.27241389  0.63015885     0.05700
H1164       H  0.11555975  0.29136126  0.60128515     0.08900
H1165       H  0.14753111  0.27380216  0.60249723     0.08900
H1166       H  0.05874758  0.17668677  0.56051373     0.08900
H1167       H  0.08619112  0.15780359  0.57544609     0.08900
H1168       H  0.08934179  0.17138674  0.54241529     0.05700
C1169       C  0.92522237  0.29126102  0.58263083    -0.20100
C1170       C  0.89838486  0.28275874  0.58333239    -0.06700
C1171       C  0.88941015  0.26565227  0.60367514     0.14200
C1172       C  0.90860768  0.25393934  0.62042022    -0.20200
C1173       C  0.93628958  0.25830609  0.61604940    -0.06700
C1174       C  0.94457391  0.27903697  0.59869078     0.14100
C1175       C  0.97372929  0.28633551  0.59457919    -0.23500
H1176       H  0.93150765  0.30536674  0.56734706     0.15400
H1177       H  0.90224926  0.23876854  0.63458512     0.15500
C1178       C  0.86024386  0.25790206  0.60600801    -0.23500
H1179       H  0.97604430  0.30349643  0.58063035     0.05700
H1180       H  0.98486660  0.26919316  0.58584047     0.08900
H1181       H  0.98285720  0.29212324  0.61401273     0.08900
H1182       H  0.85346395  0.24808944  0.58724913     0.08900
H1183       H  0.84789186  0.27604731  0.60958164     0.08900
H1184       H  0.85682191  0.24380693  0.62285666     0.05700
C1185       C  0.00263665  0.15106915  0.51303972    -0.20100
C1186       C  0.98796491  0.16993254  0.52818403    -0.06700
C1187       C  0.97501268  0.19086763  0.51371144     0.14200
C1188       C  0.97692142  0.19208500  0.48533106    -0.20200
C1189       C  0.99117510  0.17293901  0.47016389    -0.06700
C1190       C  0.00425817  0.15213918  0.48460873     0.14100
C1191       C  0.02086500  0.13137900  0.47033759    -0.23500
H1192       H  0.01300436  0.13517761  0.52356927     0.15400
H1193       H  0.96694815  0.20824388  0.47482040     0.15500
C1194       C  0.95976792  0.21272669  0.52794246    -0.23500
H1195       H  0.03082942  0.11750768  0.48459317     0.05700
H1196       H  0.03680299  0.14129036  0.45832202     0.08900
H1197       H  0.00784069  0.11921254  0.45704954     0.08900
H1198       H  0.97316908  0.22296202  0.54247596     0.08900
H1199       H  0.94214223  0.20417356  0.53855289     0.08900
H1200       H  0.95209191  0.22807007  0.51378796     0.05700
C1201       C  0.24462780  0.26089253  0.51412246    -0.20100
C1202       C  0.22672479  0.26349336  0.49240965    -0.06700
C1203       C  0.23114194  0.24717927  0.46954485     0.14200
C1204       C  0.25178083  0.22780405  0.46972182    -0.20200
C1205       C  0.26855756  0.22392059  0.49204449    -0.06700
C1206       C  0.26529347  0.24126659  0.51428601     0.14100
C1207       C  0.28237055  0.23798328  0.53893626    -0.23500
H1208       H  0.24140465  0.27312351  0.53173454     0.15400
H1209       H  0.25420397  0.21479646  0.45253090     0.15500
C1210       C  0.21408644  0.24998093  0.44470886    -0.23500
H1211       H  0.27677000  0.25253507  0.55477892     0.05700
H1212       H  0.30384051  0.24125090  0.53379197     0.08900
H1213       H  0.27979711  0.21752758  0.54720119     0.08900
H1214       H  0.21439823  0.27105909  0.43773520     0.08900
H1215       H  0.19307482  0.24379126  0.44881947     0.08900
H1216       H  0.22163072  0.23723722  0.42811453     0.05700
C1217       C  0.32899434  0.01302702  0.51993253    -0.20100
C1218       C  0.34227122  0.02685743  0.49914055    -0.06700
C1219       C  0.35482088  0.01093427  0.47897641     0.14200
C1220       C  0.35309789  0.98250822  0.47994660    -0.20200
C1221       C  0.33979595  0.96883689  0.50081828    -0.06700
C1222       C  0.32765921  0.98473984  0.52109968     0.14100
C1223       C  0.31253365  0.97215050  0.54395343    -0.23500
H1224       H  0.31913755  0.02448309  0.53550817     0.15400
H1225       H  0.36248352  0.97079452  0.46426710     0.15500
C1226       C  0.37057369  0.02348295  0.45648790    -0.23500
H1227       H  0.30276129  0.98730924  0.55697489     0.05700
H1228       H  0.32686582  0.96081163  0.55651891     0.08900
H1229       H  0.29658245  0.95867695  0.53620096     0.08900
H1230       H  0.38692878  0.03610400  0.46480578     0.08900
H1231       H  0.35714283  0.03580497  0.44381746     0.08900
H1232       H  0.37996573  0.00819583  0.44334308     0.05700
C1233       C  0.26988679  0.05723954  0.38878016    -0.20100
C1234       C  0.24540515  0.06814209  0.38028352    -0.06700
C1235       C  0.24003388  0.09556229  0.38467293     0.14200
C1236       C  0.25637427  0.10967121  0.40244609    -0.20200
C1237       C  0.27850930  0.09722985  0.41441659    -0.06700
C1238       C  0.28638770  0.07128851  0.40630307     0.14100
C1239       C  0.31035514  0.05704731  0.41818458    -0.23500
H1240       H  0.27454448  0.03649341  0.38455341     0.15400
H1241       H  0.25121080  0.13004431  0.40781390     0.15500
C1242       C  0.21695394  0.11013247  0.37164134    -0.23500
H1243       H  0.31245651  0.03633962  0.41042263     0.05700
H1244       H  0.30814340  0.05573246  0.44027230     0.08900
H1245       H  0.32910464  0.06793736  0.41305238     0.08900
H1246       H  0.20201027  0.11609783  0.38704970     0.08900
H1247       H  0.20688305  0.09793964  0.35604725     0.08900
H1248       H  0.22464744  0.12838417  0.36154864     0.05700
C1249       C  0.20496081  0.91235723  0.42335237    -0.20100
C1250       C  0.21562384  0.91982883  0.39846547    -0.06700
C1251       C  0.24038810  0.90915131  0.38987682     0.14200
C1252       C  0.25553972  0.89412651  0.40799175    -0.20200
C1253       C  0.24674242  0.89031287  0.43450379    -0.06700
C1254       C  0.22036421  0.89808748  0.44180005     0.14100
C1255       C  0.20894681  0.89366897  0.46945796    -0.23500
H1256       H  0.18558437  0.92016070  0.42956653     0.15400
H1257       H  0.27524735  0.88702263  0.40199029     0.15500
C1258       C  0.25113398  0.91391421  0.36202567    -0.23500
H1259       H  0.18808347  0.90141701  0.47128200     0.05700
H1260       H  0.22137630  0.90425993  0.48457117     0.08900
H1261       H  0.20833407  0.87194848  0.47397733     0.08900
H1262       H  0.25606963  0.93531559  0.35903433     0.08900
H1263       H  0.23593164  0.90759464  0.34702903     0.08900
H1264       H  0.26982363  0.90231910  0.35830205     0.05700
C1265       C  0.07818106  0.06773882  0.34917203    -0.20100
C1266       C  0.10447205  0.07534578  0.34282302    -0.06700
C1267       C  0.11035860  0.10206162  0.33628627     0.14200
C1268       C  0.08975868  0.12111810  0.33743642    -0.20200
C1269       C  0.06369581  0.11394147  0.34560100    -0.06700
C1270       C  0.05757823  0.08672861  0.35070588     0.14100
C1271       C  0.02953112  0.07743992  0.35767898    -0.23500
H1272       H  0.07404267  0.04701970  0.35409409     0.15400
H1273       H  0.09435699  0.14189561  0.33328814     0.15500
C1274       C  0.13851323  0.11047290  0.32896741    -0.23500
H1275       H  0.02823591  0.05528880  0.35861233     0.05700
H1276       H  0.01509139  0.08443145  0.34223032     0.08900
H1277       H  0.02348182  0.08514853  0.37760959     0.08900
H1278       H  0.14529554  0.09919531  0.31104712     0.08900
H1279       H  0.15238795  0.10626713  0.34586893     0.08900
H1280       H  0.13964776  0.13216142  0.32433261     0.05700
C1281       C  0.20906972  0.09787624  0.58329452    -0.20100
C1282       C  0.22146544  0.08898389  0.60684562    -0.06700
C1283       C  0.24776440  0.09704256  0.61288061     0.14200
C1284       C  0.26261682  0.11043174  0.59328974    -0.20200
C1285       C  0.25191143  0.11479550  0.56749494    -0.06700
C1286       C  0.22402364  0.11069864  0.56326620     0.14100
C1287       C  0.21019255  0.11775293  0.53735460    -0.23500
H1288       H  0.18851412  0.09186813  0.57920450     0.15400
H1289       H  0.28350230  0.11511412  0.59738427     0.15500
C1290       C  0.26071685  0.08957799  0.63910082    -0.23500
H1291       H  0.18822471  0.11378696  0.53828922     0.05700
H1292       H  0.21847832  0.10561222  0.52070077     0.08900
H1293       H  0.21294380  0.13936247  0.53305634     0.08900
H1294       H  0.26162271  0.06749610  0.64116453     0.08900
H1295       H  0.24873529  0.09796588  0.65587928     0.08900
H1296       H  0.28153410  0.09749711  0.64063117     0.05700
C1297       C  0.26567224  0.93372884  0.61350922    -0.20100
C1298       C  0.23776217  0.93090914  0.61245422    -0.06700
C1299       C  0.22611335  0.90801987  0.60077858     0.14200
C1300       C  0.24270639  0.89024512  0.58701642    -0.20200
C1301       C  0.27039709  0.89512078  0.58465549    -0.06700
C1302       C  0.28239914  0.91562169  0.60025443     0.14100
C1303       C  0.31242433  0.91955487  0.60218596    -0.23500
H1304       H  0.27427329  0.95092518  0.62358230     0.15400
H1305       H  0.23368280  0.87382139  0.57606767     0.15500
C1306       C  0.19610056  0.90351431  0.60067908    -0.23500
H1307       H  0.31774018  0.93624312  0.61586810     0.05700
H1308       H  0.32103489  0.92433900  0.58234747     0.08900
H1309       H  0.32191963  0.90109119  0.61011206     0.08900
H1310       H  0.18581781  0.92056345  0.59077366     0.08900
H1311       H  0.18867701  0.90153899  0.62154879     0.08900
H1312       H  0.19054890  0.88497355  0.58976361     0.05700
C1313       C  0.06825445  0.05454301  0.64583294    -0.20100
C1314       C  0.09244683  0.06161448  0.65865581    -0.06700
C1315       C  0.09275169  0.08458577  0.67533791     0.14200
C1316       C  0.07014647  0.10148704  0.67574959    -0.20200
C1317       C  0.04757033  0.09612460  0.65981046    -0.06700
C1318       C  0.04591624  0.07155776  0.64603239     0.14100
C1319       C  0.02083139  0.06337279  0.63112149    -0.23500
H1320       H  0.06722312  0.03624152  0.63425517     0.15400
H1321       H  0.07106001  0.12016849  0.68671750     0.15500
C1322       C  0.11706908  0.09243984  0.69153518    -0.23500
H1323       H  0.02246996  0.04270812  0.62313919     0.05700
H1324       H  0.01718552  0.07681095  0.61385315     0.08900
H1325       H  0.00327531  0.06404396  0.64485669     0.08900
H1326       H  0.13440212  0.09633901  0.67807396     0.08900
H1327       H  0.12213142  0.07623590  0.70587276     0.08900
H1328       H  0.11344203  0.11089983  0.70335599     0.05700
C1329       C  0.17211257  0.02515096  0.48214695    -0.20100
C1330       C  0.15466309  0.00741907  0.46870914    -0.06700
C1331       C  0.13821506  0.99053627  0.48485649     0.14200
C1332       C  0.14026946  0.99138031  0.51326418    -0.20200
C1333       C  0.15871567  0.00821140  0.52647175    -0.06700
C1334       C  0.17446291  0.02567758  0.51041061     0.14100
C1335       C  0.19342091  0.04560475  0.52294586    -0.23500
H1336       H  0.18463979  0.03843349  0.47038397     0.15400
H1337       H  0.12786459  0.97817981  0.52525006     0.15500
C1338       C  0.11808352  0.97176948  0.47245120    -0.23500
H1339       H  0.20281016  0.05880027  0.50769683     0.05700
H1340       H  0.20991784  0.03509912  0.53355367     0.08900
H1341       H  0.18226305  0.05846305  0.53726769     0.08900
H1342       H  0.12863073  0.95626513  0.46053021     0.08900
H1343       H  0.10408297  0.98315043  0.45940557     0.08900
H1344       H  0.10590177  0.96129795  0.48787214     0.05700
C1345       C  0.83421204  0.42710510  0.40433749    -0.20100
C1346       C  0.85065265  0.42132653  0.38213533    -0.06700
C1347       C  0.86432052  0.39646467  0.38096216     0.14200
C1348       C  0.86281877  0.37911969  0.40286597    -0.20200
C1349       C  0.84799452  0.38586237  0.42565268    -0.06700
C1350       C  0.83281545  0.40958302  0.42623894     0.14100
C1351       C  0.81590953  0.41666816  0.45022177    -0.23500
H1352       H  0.82351525  0.44597067  0.40518389     0.15400
H1353       H  0.87391821  0.36044525  0.40256373     0.15500
C1354       C  0.88038262  0.38783019  0.35680096    -0.23500
H1355       H  0.80536665  0.43605340  0.44745591     0.05700
H1356       H  0.82885245  0.41821598  0.46826060     0.08900
H1357       H  0.80052038  0.40092170  0.45353323     0.08900
H1358       H  0.89867992  0.40031519  0.35460519     0.08900
H1359       H  0.86779483  0.38940413  0.33850842     0.08900
H1360       H  0.88720705  0.36675062  0.35856227     0.05700
C1361       C  0.14926464  0.44081727  0.43137392    -0.20100
C1362       C  0.16562481  0.43606330  0.40882914    -0.06700
C1363       C  0.18363350  0.41395819  0.40947229     0.14200
C1364       C  0.18202163  0.39563768  0.43077838    -0.20200
C1365       C  0.16281418  0.39867531  0.45106790    -0.06700
C1366       C  0.14741895  0.42230971  0.45228764     0.14100
C1367       C  0.12859491  0.42787167  0.47534858    -0.23500
H1368       H  0.13643303  0.45831648  0.43198997     0.15400
H1369       H  0.19420071  0.37765599  0.43035706     0.15500
C1370       C  0.20374138  0.40856562  0.38752530    -0.23500
H1371       H  0.11952628  0.44811614  0.47389787     0.05700
H1372       H  0.13984013  0.42671828  0.49451809     0.08900
H1373       H  0.11184110  0.41325090  0.47563834     0.08900
H1374       H  0.21706751  0.42619006  0.38492076     0.08900
H1375       H  0.19317396  0.40400692  0.36850454     0.08900
H1376       H  0.21674659  0.39112916  0.39225254     0.05700
C1377       C  0.99329783  0.51125390  0.35645991    -0.20100
C1378       C  0.97900705  0.49057400  0.34329680    -0.06700
C1379       C  0.99477027  0.47013519  0.33089838     0.14200
C1380       C  0.02324329  0.47186017  0.33074723    -0.20200
C1381       C  0.03732524  0.49277002  0.34331102    -0.06700
C1382       C  0.02193143  0.51243446  0.35682628     0.14100
C1383       C  0.03563139  0.53538584  0.37071045    -0.23500
H1384       H  0.98201261  0.52701182  0.36620980     0.15400
H1385       H  0.03473952  0.45665110  0.32040003     0.15500
C1386       C  0.98212851  0.44630387  0.31733886    -0.23500
H1387       H  0.02087714  0.54943274  0.37971040     0.05700
H1388       H  0.04809367  0.54668656  0.35613164     0.08900
H1389       H  0.04868422  0.52767801  0.38700114     0.08900
H1390       H  0.96977526  0.45293342  0.30006744     0.08900
H1391       H  0.96951301  0.43512686  0.33188436     0.08900
H1392       H  0.99747142  0.43216268  0.30951450     0.05700
C1393       C  0.06840953  0.38975739  0.27493226    -0.20100
C1394       C  0.07645192  0.38287807  0.24888131    -0.06700
C1395       C  0.10426787  0.38398938  0.24213425     0.14200
C1396       C  0.12202597  0.39689166  0.25956548    -0.20200
C1397       C  0.11263724  0.40798178  0.28336293    -0.06700
C1398       C  0.08638202  0.40235811  0.29234465     0.14100
C1399       C  0.07687774  0.41164294  0.31946840    -0.23500
H1400       H  0.04753387  0.38769803  0.28083835     0.15400
H1401       H  0.14250738  0.40091646  0.25325429     0.15500
C1402       C  0.11542902  0.37309416  0.21622610    -0.23500
H1403       H  0.05564574  0.40585867  0.32328412     0.05700
H1404       H  0.07836952  0.43371560  0.32098905     0.08900
H1405       H  0.08961151  0.40247645  0.33525327     0.08900
H1406       H  0.10956817  0.38596333  0.19911191     0.08900
H1407       H  0.10815540  0.35234707  0.21306567     0.08900
H1408       H  0.13776705  0.37247951  0.21651477     0.05700
C1409       C  0.89251975  0.41300548  0.24862138    -0.20100
C1410       C  0.89365255  0.44064063  0.24335281    -0.06700
C1411       C  0.90631700  0.44990329  0.21975054     0.14200
C1412       C  0.92097658  0.43169796  0.20445328    -0.20200
C1413       C  0.92386623  0.40513518  0.21286320    -0.06700
C1414       C  0.90803965  0.39507531  0.23381636     0.14100
C1415       C  0.90821020  0.36581674  0.24098634    -0.23500
H1416       H  0.88162075  0.40576457  0.26597825     0.15400
H1417       H  0.93278810  0.43893015  0.18767359     0.15500
C1418       C  0.90692421  0.47901781  0.21186548    -0.23500
H1419       H  0.89389124  0.36133830  0.25746602     0.05700
H1420       H  0.92855951  0.35957683  0.24759526     0.08900
H1421       H  0.90223728  0.35382685  0.22324935     0.08900
H1422       H  0.91755567  0.49091557  0.22735354     0.08900
H1423       H  0.88607759  0.48654826  0.20931698     0.08900
H1424       H  0.91765695  0.48213477  0.19262226     0.05700
C1425       C  0.97415230  0.27606524  0.24768944    -0.20100
C1426       C  0.99548456  0.27666579  0.22918908    -0.06700
C1427       C  0.01493805  0.25597755  0.23049303     0.14200
C1428       C  0.01308065  0.23613101  0.25074485    -0.20200
C1429       C  0.99210046  0.23605448  0.26982211    -0.06700
C1430       C  0.97215105  0.25632734  0.26778770     0.14100
C1431       C  0.94944037  0.25853350  0.28772248    -0.23500
H1432       H  0.95924956  0.29187536  0.24697500     0.15400
H1433       H  0.02855045  0.22092913  0.25209137     0.15500
C1434       C  0.03849109  0.25554726  0.21154602    -0.23500
H1435       H  0.93660761  0.27630817  0.28389572     0.05700
H1436       H  0.95766256  0.26044870  0.30830648     0.08900
H1437       H  0.93632139  0.24063690  0.28642268     0.08900
H1438       H  0.05020902  0.27434238  0.21352767     0.08900
H1439       H  0.03119175  0.25352271  0.19064701     0.08900
H1440       H  0.05221358  0.23852635  0.21572464     0.05700
C1441       C  0.12030661  0.58774878  0.26700075    -0.20100
C1442       C  0.12550528  0.56248881  0.25595923    -0.06700
C1443       C  0.11973508  0.55744134  0.22884666     0.14200
C1444       C  0.10569700  0.57671015  0.21430401    -0.20200
C1445       C  0.09664444  0.60030832  0.22663381    -0.06700
C1446       C  0.10553421  0.60678255  0.25267989     0.14100
C1447       C  0.09907915  0.63324310  0.26563731    -0.23500
H1448       H  0.12566897  0.59170343  0.28766833     0.15400
H1449       H  0.09953379  0.57206531  0.19401205     0.15500
C1450       C  0.12763225  0.53157921  0.21543223    -0.23500
H1451       H  0.10949034  0.63548691  0.28518585     0.05700
H1452       H  0.07719575  0.63503155  0.26948302     0.08900
H1453       H  0.10575362  0.64981337  0.25241287     0.08900
H1454       H  0.11675083  0.51449630  0.22453583     0.08900
H1455       H  0.14964341  0.52844362  0.21751285     0.08900
H1456       H  0.12273344  0.53175862  0.19373398     0.05700
C1457       C  0.95593230  0.60581116  0.27741307    -0.20100
C1458       C  0.94619763  0.61435096  0.25250040    -0.06700
C1459       C  0.91842686  0.61183736  0.24663175     0.14200
C1460       C  0.90219716  0.59704877  0.26399897    -0.20200
C1461       C  0.91319279  0.58457792  0.28655618    -0.06700
C1462       C  0.93990591  0.59043252  0.29442325     0.14100
C1463       C  0.95268272  0.57832804  0.31903860    -0.23500
H1464       H  0.97700325  0.60850702  0.28229511     0.15400
H1465       H  0.88141971  0.59314579  0.25866289     0.15500
C1466       C  0.90584832  0.62354407  0.22174767    -0.23500
H1467       H  0.97390533  0.58480959  0.32155617     0.05700
H1468       H  0.95267325  0.55618136  0.31750316     0.08900
H1469       H  0.94147082  0.58463848  0.33718765     0.08900
H1470       H  0.91242684  0.61247280  0.20366838     0.08900
H1471       H  0.91137218  0.64497143  0.21991518     0.08900
H1472       H  0.88354672  0.62227023  0.22241789     0.05700
C1473       C  0.03727631  0.51616621  0.16016407    -0.20100
C1474       C  0.01239376  0.52971992  0.16182004    -0.06700
C1475       C  0.98868389  0.51371876  0.16215847     0.14200
C1476       C  0.99060085  0.48549420  0.16086383    -0.20200
C1477       C  0.01545678  0.47193121  0.15967502    -0.06700
C1478       C  0.03916962  0.48785248  0.15932315     0.14100
C1479       C  0.06671513  0.47537360  0.15782986    -0.23500
H1480       H  0.05564081  0.52782346  0.15997238     0.15400
H1481       H  0.97224160  0.47382990  0.16139271     0.15500
C1482       C  0.96099296  0.52591560  0.16385403    -0.23500
H1483       H  0.08283621  0.49069732  0.15653603     0.05700
H1484       H  0.06817966  0.46251592  0.13977033     0.08900
H1485       H  0.07056793  0.46330808  0.17607845     0.08900
H1486       H  0.95784883  0.53991618  0.14689251     0.08900
H1487       H  0.95857457  0.53658505  0.18319264     0.08900
H1488       H  0.94491603  0.51055840  0.16277431     0.05700
C1489       C  0.23131123  0.46435535  0.25110543    -0.20100
C1490       C  0.23432502  0.48341722  0.27153796    -0.06700
C1491       C  0.25683756  0.50089103  0.27018063     0.14200
C1492       C  0.27464857  0.49968960  0.24798256    -0.20200
C1493       C  0.27027795  0.48202379  0.22646472    -0.06700
C1494       C  0.24850530  0.46364140  0.22860197     0.14100
C1495       C  0.24295997  0.44307823  0.20718385    -0.23500
H1496       H  0.21432782  0.45079059  0.25194726     0.15400
H1497       H  0.29128825  0.51363044  0.24679561     0.15500
C1498       C  0.26234079  0.52078250  0.29213342    -0.23500
H1499       H  0.22684251  0.42894705  0.21327456     0.05700
H1500       H  0.26140675  0.43122068  0.20318366     0.08900
H1501       H  0.23609820  0.45294550  0.18850736     0.08900
H1502       H  0.26375546  0.51024530  0.31165341     0.08900
H1503       H  0.24605329  0.53590502  0.29299992     0.08900
H1504       H  0.28155395  0.53161534  0.28878341     0.05700
C1505       C  0.34481141  0.50689533  0.98168384    -0.20100
C1506       C  0.32988614  0.48653194  0.96902073    -0.06700
C1507       C  0.31690654  0.46752186  0.98580492     0.14200
C1508       C  0.31961326  0.46908066  0.01412329    -0.20200
C1509       C  0.33401176  0.48984263  0.02685238    -0.06700
C1510       C  0.34655451  0.50913543  0.01003272     0.14100
C1511       C  0.36223738  0.53206273  0.02176196    -0.23500
H1512       H  0.35458246  0.52176009  0.96924427     0.15400
H1513       H  0.30969436  0.45425712  0.02650281     0.15500
C1514       C  0.30044396  0.44516345  0.97398323    -0.23500
H1515       H  0.37178666  0.54448825  0.00596436     0.05700
H1516       H  0.37839086  0.52428546  0.03498382     0.08900
H1517       H  0.34862896  0.54524479  0.03341810     0.08900
H1518       H  0.31300754  0.43327918  0.95997816     0.08900
H1519       H  0.28287833  0.45346782  0.96308885     0.08900
H1520       H  0.29264583  0.43144973  0.98967568     0.05700
C1521       C  0.22685245  0.55397410  0.10531295    -0.20100
C1522       C  0.25290993  0.56274243  0.11137005    -0.06700
C1523       C  0.26056365  0.58920801  0.10476113     0.14200
C1524       C  0.24398375  0.60407700  0.08775215    -0.20200
C1525       C  0.22013413  0.59312181  0.07762064    -0.06700
C1526       C  0.21038463  0.56861811  0.08811686     0.14100
C1527       C  0.18403107  0.55627469  0.07950916    -0.23500
H1528       H  0.22045639  0.53418240  0.11144384     0.15400
H1529       H  0.25062188  0.62352264  0.08078936     0.15500
C1530       C  0.28631314  0.60169205  0.11475483    -0.23500
H1531       H  0.18022677  0.53684556  0.08960338     0.05700
H1532       H  0.18421211  0.55245203  0.05760920     0.08900
H1533       H  0.16712851  0.56979252  0.08476857     0.08900
H1534       H  0.30406987  0.59259547  0.10490807     0.08900
H1535       H  0.28778650  0.59920329  0.13679800     0.08900
H1536       H  0.28698120  0.62345344  0.11034602     0.05700
C1537       C  0.27487766  0.59741337  0.93681398    -0.20100
C1538       C  0.25230697  0.61110401  0.92714693    -0.06700
C1539       C  0.24610264  0.61009451  0.89948740     0.14200
C1540       C  0.25850624  0.59068943  0.88364157    -0.20200
C1541       C  0.27739375  0.57347250  0.89498891    -0.06700
C1542       C  0.28732216  0.57809290  0.92100947     0.14100
C1543       C  0.30976996  0.56144696  0.93266500    -0.23500
H1544       H  0.28045537  0.59902327  0.95773202     0.15400
H1545       H  0.25219666  0.58788332  0.86305015     0.15500
C1546       C  0.22551466  0.62811527  0.88669368    -0.23500
H1547       H  0.31530936  0.56813924  0.95313818     0.05700
H1548       H  0.32790144  0.56303298  0.91977221     0.08900
H1549       H  0.30348831  0.54021867  0.93394826     0.08900
H1550       H  0.21821055  0.64374592  0.90067997     0.08900
H1551       H  0.20816051  0.61607669  0.87959406     0.08900
H1552       H  0.23472428  0.63852321  0.86931819     0.05700
C1553       C  0.07636700  0.64671537  0.05120837    -0.20100
C1554       C  0.10219852  0.65760457  0.05388840    -0.06700
C1555       C  0.10908264  0.67178095  0.07738875     0.14200
C1556       C  0.09039828  0.67329715  0.09841171    -0.20200
C1557       C  0.06540337  0.66054763  0.09647333    -0.06700
C1558       C  0.05784011  0.64800861  0.07230710     0.14100
C1559       C  0.03059398  0.63511638  0.06920564    -0.23500
H1560       H  0.07123885  0.63588678  0.03311067     0.15400
H1561       H  0.09615625  0.68247511  0.11721665     0.15500
C1562       C  0.13685014  0.68323912  0.08127876    -0.23500
H1563       H  0.02778281  0.62667276  0.04883021     0.05700
H1564       H  0.01461073  0.65024067  0.07265516     0.08900
H1565       H  0.02819887  0.61860139  0.08385374     0.08900
H1566       H  0.14088639  0.69859972  0.06575300     0.08900
H1567       H  0.15211568  0.66709134  0.07975424     0.08900
H1568       H  0.13905836  0.69285254  0.10120011     0.05700
C1569       C  0.23052189  0.39255748  0.08182727    -0.20100
C1570       C  0.24514184  0.38232079  0.06013804    -0.06700
C1571       C  0.27326965  0.38453099  0.05939561     0.14200
C1572       C  0.28603278  0.39935816  0.07930217    -0.20200
C1573       C  0.27104741  0.41270823  0.09914228    -0.06700
C1574       C  0.24308307  0.40817375  0.10129968     0.14100
C1575       C  0.22624271  0.42009986  0.12343140    -0.23500
H1576       H  0.20885479  0.39009374  0.08237089     0.15400
H1577       H  0.30758564  0.40234265  0.07791918     0.15500
C1578       C  0.28969036  0.37174809  0.03748857    -0.23500
H1579       H  0.20535982  0.41219173  0.12314597     0.05700
H1580       H  0.22482170  0.44210366  0.12114164     0.08900
H1581       H  0.23520017  0.41512104  0.14317190     0.08900
H1582       H  0.28440678  0.38057339  0.01780522     0.08900
H1583       H  0.28572110  0.34990546  0.03706009     0.08900
H1584       H  0.31159909  0.37475056  0.04065637     0.05700
C1585       C  0.24962639  0.37370778  0.89376079    -0.20100
C1586       C  0.22351971  0.38029311  0.90156468    -0.06700
C1587       C  0.21047730  0.40271704  0.89047621     0.14200
C1588       C  0.22551732  0.42067834  0.87518707    -0.20200
C1589       C  0.25303604  0.41631678  0.87103060    -0.06700
C1590       C  0.26474096  0.39156335  0.87838288     0.14100
C1591       C  0.29385929  0.38512364  0.87285725    -0.23500
H1592       H  0.25917958  0.35618588  0.90231635     0.15400
H1593       H  0.21651017  0.43936014  0.86877928     0.15500
C1594       C  0.18150416  0.40892072  0.89694523    -0.23500
H1595       H  0.29949375  0.36504870  0.88054926     0.05700
H1596       H  0.30709590  0.40004028  0.88271702     0.08900
H1597       H  0.29753310  0.38522511  0.85093396     0.08900
H1598       H  0.17895048  0.41181149  0.91883619     0.08900
H1599       H  0.16856435  0.39208774  0.89030958     0.08900
H1600       H  0.17453939  0.42738002  0.88669534     0.05700
C1601       C  0.10661795  0.34963468  0.11307556    -0.20100
C1602       C  0.07999183  0.34128529  0.10910125    -0.06700
C1603       C  0.07192643  0.33169742  0.08369091     0.14200
C1604       C  0.09030538  0.33246484  0.06238155    -0.20200
C1605       C  0.11648897  0.34198213  0.06623135    -0.06700
C1606       C  0.12506154  0.34992392  0.09193194     0.14100
C1607       C  0.15323941  0.36000733  0.09674134    -0.23500
H1608       H  0.11270219  0.35691386  0.13260813     0.15400
H1609       H  0.08408455  0.32625662  0.04252903     0.15500
C1610       C  0.04366108  0.32212851  0.07859043    -0.23500
H1611       H  0.15638607  0.36591501  0.11794774     0.05700
H1612       H  0.15715972  0.37776010  0.08397135     0.08900
H1613       H  0.16800952  0.34410536  0.09181663     0.08900
H1614       H  0.02916396  0.33815880  0.08377036     0.08900
H1615       H  0.03944775  0.30420082  0.09100211     0.08900
H1616       H  0.04051918  0.31660354  0.05728097     0.05700
C1617       C  0.14360598  0.47796135  0.99730664    -0.20100
C1618       C  0.16499473  0.46466510  0.98426998    -0.06700
C1619       C  0.18389627  0.48107872  0.97033205     0.14200
C1620       C  0.18141790  0.50938344  0.97063353    -0.20200
C1621       C  0.16094391  0.52274079  0.98485132    -0.06700
C1622       C  0.14150062  0.50642834  0.99801151     0.14100
C1623       C  0.11803758  0.51884577  0.01245393    -0.23500
H1624       H  0.12873098  0.46601388  0.00771378     0.15400
H1625       H  0.19631112  0.52130808  0.96021305     0.15500
C1626       C  0.20681321  0.46909450  0.95454719    -0.23500
H1627       H  0.10393796  0.50346257  0.02022261     0.05700
H1628       H  0.10669669  0.53199841  0.99854235     0.08900
H1629       H  0.12527389  0.53068779  0.02978720     0.08900
H1630       H  0.19890620  0.45454934  0.93972808     0.08900
H1631       H  0.22121903  0.45905498  0.96820654     0.08900
H1632       H  0.21827862  0.48454286  0.94335809     0.05700
C1633       C  0.43982886  0.41179610  0.84655933    -0.20100
C1634       C  0.43318812  0.38519741  0.84068916    -0.06700
C1635       C  0.40652158  0.37880031  0.83312339     0.14200
C1636       C  0.38678323  0.39889672  0.83370882    -0.20200
C1637       C  0.39309075  0.42499176  0.84187426    -0.06700
C1638       C  0.42019111  0.43180234  0.84719947     0.14100
C1639       C  0.42865058  0.46003893  0.85364474    -0.23500
H1640       H  0.46043984  0.41678087  0.85162461     0.15400
H1641       H  0.36605103  0.39385692  0.82926036     0.15500
C1642       C  0.39836886  0.35067184  0.82600512    -0.23500
H1643       H  0.45087939  0.46200782  0.85477614     0.05700
H1644       H  0.42046345  0.46611624  0.87336441     0.08900
H1645       H  0.42135369  0.47387878  0.83784440     0.08900
H1646       H  0.40288605  0.33699008  0.84293008     0.08900
H1647       H  0.40942718  0.34403519  0.80787918     0.08900
H1648       H  0.37651614  0.34921201  0.82161238     0.05700
C1649       C  0.42162202  0.39144154  0.17051523    -0.20100
C1650       C  0.44558571  0.39784808  0.15717890    -0.06700
C1651       C  0.44899266  0.42357609  0.14607922     0.14200
C1652       C  0.42735033  0.44156277  0.14645036    -0.20200
C1653       C  0.40258033  0.43426397  0.15769592    -0.06700
C1654       C  0.39987954  0.40933685  0.17066361     0.14100
C1655       C  0.37349831  0.40085986  0.18285120    -0.23500
H1656       H  0.41914068  0.37158608  0.17887689     0.15400
H1657       H  0.42929093  0.46085190  0.13672596     0.15500
C1658       C  0.47523384  0.43178127  0.13337632    -0.23500
H1659       H  0.37473313  0.38053672  0.19174152     0.05700
H1660       H  0.35758761  0.40063332  0.16725026     0.08900
H1661       H  0.36772032  0.41507276  0.19891684     0.08900
H1662       H  0.47971204  0.41890932  0.11585064     0.08900
H1663       H  0.49173859  0.42985688  0.14823231     0.08900
H1664       H  0.47467911  0.45285746  0.12638314     0.05700
C1665       C  0.49525915  0.35081403  0.01008142    -0.20100
C1666       C  0.50906937  0.33128940  0.02512070    -0.06700
C1667       C  0.52225945  0.31060111  0.01064328     0.14200
C1668       C  0.52102682  0.30988268  0.98226052    -0.20200
C1669       C  0.50745277  0.32951793  0.96708689    -0.06700
C1670       C  0.49466094  0.35051153  0.98157655     0.14100
C1671       C  0.47976898  0.37249995  0.96728640    -0.23500
H1672       H  0.48501776  0.36669461  0.02075374     0.15400
H1673       H  0.53100277  0.29370891  0.97178073     0.15500
C1674       C  0.53698541  0.28846870  0.02498085    -0.23500
H1675       H  0.47021375  0.38665008  0.98154361     0.05700
H1676       H  0.46366123  0.36382689  0.95458518     0.08900
H1677       H  0.49395169  0.38414017  0.95468176     0.08900
H1678       H  0.52315407  0.27820353  0.03909980     0.08900
H1679       H  0.55437735  0.29677013  0.03613600     0.08900
H1680       H  0.54491075  0.27325082  0.01083083     0.05700
C1681       C  0.39663022  0.23176910  0.09185523    -0.20100
C1682       C  0.38890887  0.24206136  0.06678235    -0.06700
C1683       C  0.39213690  0.26972757  0.06162185     0.14200
C1684       C  0.40764330  0.28479589  0.07930265    -0.20200
C1685       C  0.42036229  0.27269132  0.10123305    -0.06700
C1686       C  0.41273079  0.24671922  0.10913522     0.14100
C1687       C  0.42200651  0.23437761  0.13512116    -0.23500
H1688       H  0.39233026  0.21111807  0.09687318     0.15400
H1689       H  0.41237284  0.30531377  0.07412240     0.15500
C1690       C  0.38146101  0.28333052  0.03681601    -0.23500
H1691       H  0.41183095  0.21498052  0.13897762     0.05700
H1692       H  0.41719336  0.24798913  0.15201417     0.08900
H1693       H  0.44392272  0.23036934  0.13468187     0.08900
H1694       H  0.35948031  0.27980664  0.03507297     0.08900
H1695       H  0.39202539  0.27580534  0.01874873     0.08900
H1696       H  0.38463970  0.30530468  0.03745110     0.05700
C1697       C  0.41862836  0.21006185  0.89900459    -0.20100
C1698       C  0.39861920  0.22405068  0.91314871    -0.06700
C1699       C  0.39367092  0.25124065  0.90720859     0.14200
C1700       C  0.41120601  0.26450879  0.88983498    -0.20200
C1701       C  0.43369041  0.25131963  0.87930624    -0.06700
C1702       C  0.43661463  0.22355536  0.88242514     0.14100
C1703       C  0.45919754  0.20839563  0.86913952    -0.23500
H1704       H  0.42194093  0.18898772  0.90286330     0.15400
H1705       H  0.40893563  0.28585128  0.88669191     0.15500
C1706       C  0.37069063  0.26658241  0.91957427    -0.23500
H1707       H  0.45772050  0.18656679  0.87296631     0.05700
H1708       H  0.47894731  0.21523592  0.87684571     0.08900
H1709       H  0.45838280  0.21161549  0.84715878     0.08900
H1710       H  0.37392700  0.26924806  0.94136899     0.08900
H1711       H  0.35152431  0.25576653  0.91604197     0.08900
H1712       H  0.36874185  0.28686260  0.91070850     0.05700
C1713       C  0.25810533  0.22855214  0.00943864    -0.20100
C1714       C  0.27549816  0.22626487  0.98738680    -0.06700
C1715       C  0.27046842  0.24253218  0.96468155     0.14200
C1716       C  0.24943622  0.26152170  0.96518289    -0.20200
C1717       C  0.23324113  0.26542497  0.98800742    -0.06700
C1718       C  0.23729310  0.24793380  0.01018873     0.14100
C1719       C  0.21991959  0.24944673  0.03486616    -0.23500
H1720       H  0.26175397  0.21609618  0.02682113     0.15400
H1721       H  0.24648089  0.27428952  0.94790461     0.15500
C1722       C  0.28730490  0.23992733  0.93969194    -0.23500
H1723       H  0.22459328  0.23311591  0.04920526     0.05700
H1724       H  0.19840587  0.24761889  0.02918929     0.08900
H1725       H  0.22334923  0.26863507  0.04545157     0.08900
H1726       H  0.28672485  0.21894583  0.93245474     0.08900
H1727       H  0.30841765  0.24573530  0.94382980     0.08900
H1728       H  0.27981026  0.25301191  0.92334642     0.05700
C1729       C  0.61939201  0.24398330  0.09612842    -0.20100
C1730       C  0.60974110  0.22147416  0.08277837    -0.06700
C1731       C  0.58498791  0.20987807  0.09015904     0.14200
C1732       C  0.56818080  0.22378574  0.10764669    -0.20200
C1733       C  0.57573032  0.24910290  0.11700083    -0.06700
C1734       C  0.60276974  0.25762688  0.11403920     0.14100
C1735       C  0.61400035  0.28180369  0.12814574    -0.23500
H1736       H  0.63905473  0.25198007  0.09118523     0.15400
H1737       H  0.54790973  0.21651897  0.11097177     0.15500
C1738       C  0.57543491  0.18403849  0.07783077    -0.23500
H1739       H  0.63284108  0.27620847  0.13868288     0.05700
H1740       H  0.60000570  0.28974527  0.14351438     0.08900
H1741       H  0.61856921  0.29773196  0.11333108     0.08900
H1742       H  0.59018927  0.16792957  0.08211342     0.08900
H1743       H  0.57334117  0.18635034  0.05582913     0.08900
H1744       H  0.55561309  0.17778511  0.08597683     0.05700
C1745       C  0.61465177  0.22961840  0.90096626    -0.20100
C1746       C  0.62281001  0.24368242  0.92390016    -0.06700
C1747       C  0.61856277  0.27152311  0.92554744     0.14200
C1748       C  0.60316704  0.28397239  0.90570481    -0.20200
C1749       C  0.59145480  0.26889532  0.88515167    -0.06700
C1750       C  0.59840392  0.24188407  0.88173888     0.14100
C1751       C  0.58734012  0.22576359  0.85876924    -0.23500
H1752       H  0.61851185  0.20832991  0.89950295     0.15400
H1753       H  0.59781626  0.30488503  0.90788398     0.15500
C1754       C  0.62934155  0.28789800  0.94849723    -0.23500
H1755       H  0.59503072  0.20491294  0.85898457     0.05700
H1756       H  0.59338187  0.23515177  0.83953955     0.08900
H1757       H  0.56505633  0.22497333  0.85988560     0.08900
H1758       H  0.65145542  0.28516415  0.94996684     0.08900
H1759       H  0.61977227  0.28179427  0.96759557     0.08900
H1760       H  0.62526544  0.30955176  0.94565071     0.05700
C1761       C  0.51707525  0.18209094  0.97836249    -0.20100
C1762       C  0.53248540  0.16551274  0.99526962    -0.06700
C1763       C  0.51837243  0.14731837  0.01206461     0.14200
C1764       C  0.48980969  0.14647725  0.01172228    -0.20200
C1765       C  0.47447735  0.16268585  0.99443866    -0.06700
C1766       C  0.48858286  0.18067548  0.97743159     0.14100
C1767       C  0.47365506  0.19924152  0.95884905    -0.23500
H1768       H  0.52745114  0.19624648  0.96558018     0.15400
H1769       H  0.47933357  0.13283899  0.02497231     0.15500
C1770       C  0.53322153  0.12926317  0.03114239    -0.23500
H1771       H  0.48754580  0.21277985  0.94789641     0.05700
H1772       H  0.45942364  0.21181199  0.97047969     0.08900
H1773       H  0.46236301  0.18750212  0.94372574     0.08900
H1774       H  0.54592005  0.14138131  0.04479692     0.08900
H1775       H  0.54606633  0.11511331  0.01977023     0.08900
H1776       H  0.51920650  0.11724778  0.04360389     0.05700
C1777       C  0.37165562  0.85157415  0.39878490    -0.20100
C1778       C  0.37695700  0.83738260  0.42242282    -0.06700
C1779       C  0.40040643  0.82146451  0.42415471     0.14200
C1780       C  0.41951714  0.82288605  0.40343424    -0.20200
C1781       C  0.41557086  0.83993253  0.38144120    -0.06700
C1782       C  0.39064345  0.85314823  0.37827923     0.14100
C1783       C  0.38393661  0.86920644  0.35353704    -0.23500
H1784       H  0.35309191  0.86283351  0.39701384     0.15400
H1785       H  0.43836469  0.81214797  0.40531517     0.15500
C1786       C  0.40618020  0.80438235  0.44831536    -0.23500
H1787       H  0.36268995  0.87609021  0.35366419     0.05700
H1788       H  0.38690885  0.85671333  0.33540376     0.08900
H1789       H  0.39673894  0.88730861  0.35226951     0.08900
H1790       H  0.39011915  0.78913561  0.45065528     0.08900
H1791       H  0.40710818  0.81703015  0.46655473     0.08900
H1792       H  0.42566580  0.79368301  0.44638703     0.05700
C1793       C  0.41096130  0.17361461  0.38975897    -0.20100
C1794       C  0.43723543  0.16487949  0.39489925    -0.06700
C1795       C  0.44508742  0.15864378  0.42128174     0.14200
C1796       C  0.42569203  0.15866525  0.44166577    -0.20200
C1797       C  0.39882504  0.16499694  0.43607753    -0.06700
C1798       C  0.39154108  0.17370413  0.41017435     0.14100
C1799       C  0.36290745  0.18116160  0.40368304    -0.23500
H1800       H  0.40515256  0.17840535  0.36939481     0.15400
H1801       H  0.43110051  0.15199142  0.46160085     0.15500
C1802       C  0.47364595  0.15075181  0.42756575    -0.23500
H1803       H  0.36064293  0.18733485  0.38243625     0.05700
H1804       H  0.35649729  0.19810450  0.41654614     0.08900
H1805       H  0.34943265  0.16382538  0.40730223     0.08900
H1806       H  0.48744801  0.16723611  0.42180058     0.08900
H1807       H  0.47918082  0.13244423  0.41627830     0.08900
H1808       H  0.47645117  0.14664809  0.44923930     0.05700
C1809       C  0.51149875  0.24583887  0.26434877    -0.20100
C1810       C  0.49110164  0.22625416  0.26360554    -0.06700
C1811       C  0.47067082  0.22888161  0.24392414     0.14200
C1812       C  0.47229414  0.24932938  0.22458925    -0.20200
C1813       C  0.49377055  0.26761750  0.22389261    -0.06700
C1814       C  0.51314838  0.26634862  0.24469317     0.14100
C1815       C  0.53647690  0.28549278  0.24527381    -0.23500
H1816       H  0.52715109  0.24413273  0.27933876     0.15400
H1817       H  0.45711515  0.25033541  0.20903755     0.15500
C1818       C  0.44697046  0.21003991  0.24295321    -0.23500
H1819       H  0.55011717  0.28143745  0.26240409     0.05700
H1820       H  0.52891072  0.30627890  0.24725117     0.08900
H1821       H  0.54832936  0.28365853  0.22651442     0.08900
H1822       H  0.43685836  0.20952173  0.26277270     0.08900
H1823       H  0.45361872  0.18963873  0.23736409     0.08900
H1824       H  0.43186509  0.21639724  0.22785622     0.05700
C1825       C  0.47275833  0.01507947  0.33671553    -0.20100
C1826       C  0.49769111  0.02856990  0.33735635    -0.06700
C1827       C  0.52121248  0.01219556  0.33821985     0.14200
C1828       C  0.51902349  0.98378402  0.33857836    -0.20200
C1829       C  0.49406333  0.97028594  0.33754627    -0.06700
C1830       C  0.47057180  0.98671013  0.33648093     0.14100
C1831       C  0.44276911  0.97480722  0.33476218    -0.23500
H1832       H  0.45452867  0.02690584  0.33576229     0.15400
H1833       H  0.53726707  0.97195666  0.33917925     0.15500
C1834       C  0.54899366  0.02425005  0.33870696    -0.23500
H1835       H  0.42688082  0.99041787  0.33442230     0.05700
H1836       H  0.43896034  0.96187666  0.35242678     0.08900
H1837       H  0.44075640  0.96302824  0.31603332     0.08900
H1838       H  0.55106881  0.03768095  0.35627681     0.08900
H1839       H  0.55267090  0.03558319  0.31994767     0.08900
H1840       H  0.56490230  0.00872878  0.34021369     0.05700
C1841       C  0.39956955  0.08444740  0.28031799    -0.20100
C1842       C  0.41555516  0.10302123  0.26632193    -0.06700
C1843       C  0.41085079  0.10735615  0.23869261     0.14200
C1844       C  0.39318527  0.09025601  0.22522740    -0.20200
C1845       C  0.38080712  0.06903118  0.23873025    -0.06700
C1846       C  0.38245441  0.06710252  0.26672460     0.14100
C1847       C  0.36687258  0.04626824  0.28212078    -0.23500
H1848       H  0.40210236  0.08175819  0.30169975     0.15400
H1849       H  0.39103528  0.09189422  0.20367625     0.15500
C1850       C  0.42468454  0.12921291  0.22307202    -0.23500
H1851       H  0.36967474  0.04847055  0.30407091     0.05700
H1852       H  0.37360911  0.02588542  0.27653268     0.08900
H1853       H  0.34508419  0.04835798  0.27770695     0.08900
H1854       H  0.44645819  0.12489734  0.22096223     0.08900
H1855       H  0.42174196  0.14868443  0.23332424     0.08900
H1856       H  0.41635483  0.13105414  0.20251801     0.05700
C1857       C  0.40043055  0.89930373  0.21249825    -0.20100
C1858       C  0.37922231  0.91143516  0.22631696    -0.06700
C1859       C  0.37501922  0.90603364  0.25349280     0.14200
C1860       C  0.39466038  0.89183078  0.26736341    -0.20200
C1861       C  0.41892221  0.88437622  0.25471130    -0.06700
C1862       C  0.42079293  0.88597215  0.22644668     0.14100
C1863       C  0.44471210  0.87577319  0.21093472    -0.23500
H1864       H  0.40294171  0.90335438  0.19130167     0.15400
H1865       H  0.39211187  0.88902384  0.28873454     0.15500
C1866       C  0.35091005  0.91705481  0.26811291    -0.23500
H1867       H  0.44171552  0.87778358  0.18898688     0.05700
H1868       H  0.44788058  0.85424096  0.21533654     0.08900
H1869       H  0.46297421  0.88739685  0.21618913     0.08900
H1870       H  0.33221726  0.90959365  0.25852380     0.08900
H1871       H  0.35102976  0.93923868  0.26741347     0.08900
H1872       H  0.35069564  0.91084931  0.28946881     0.05700
C1873       C  0.34269661  0.09111759  0.11296369    -0.20100
C1874       C  0.34227019  0.06436438  0.10464034    -0.06700
C1875       C  0.34150045  0.05824642  0.07700810     0.14200
C1876       C  0.34261106  0.07918881  0.05830962    -0.20200
C1877       C  0.34504737  0.10579494  0.06676558    -0.06700
C1878       C  0.34453738  0.11193499  0.09430588     0.14100
C1879       C  0.34646086  0.14040460  0.10398527    -0.23500
H1880       H  0.34318610  0.09566700  0.13418581     0.15400
H1881       H  0.34285580  0.07473706  0.03706368     0.15500
C1882       C  0.33948452  0.02979115  0.06723701    -0.23500
H1883       H  0.34533216  0.14166663  0.12616087     0.05700
H1884       H  0.32964073  0.15230276  0.09551065     0.08900
H1885       H  0.36587127  0.14931626  0.09757268     0.08900
H1886       H  0.32133114  0.02016193  0.07589817     0.08900
H1887       H  0.35760962  0.01830899  0.07318683     0.08900
H1888       H  0.33787300  0.02881431  0.04507527     0.05700
C1889       C  0.23674533  0.97308830  0.26351532    -0.20100
C1890       C  0.22473220  0.99737654  0.27088691    -0.06700
C1891       C  0.23309320  0.02088697  0.25749939     0.14200
C1892       C  0.25314660  0.01949814  0.23732020    -0.20200
C1893       C  0.26575027  0.99516822  0.23015361    -0.06700
C1894       C  0.25690328  0.97153040  0.24359298     0.14100
C1895       C  0.26908743  0.94444896  0.23814192    -0.23500
H1896       H  0.23086521  0.95514323  0.27420269     0.15400
H1897       H  0.25960292  0.03781747  0.22769654     0.15500
C1898       C  0.22201157  0.04771532  0.26559402    -0.23500
H1899       H  0.25981195  0.92853378  0.25061672     0.05700
H1900       H  0.29090961  0.94474159  0.24286315     0.08900
H1901       H  0.26588401  0.93886628  0.21687605     0.08900
H1902       H  0.22644678  0.05150473  0.28705645     0.08900
H1903       H  0.19991185  0.04805887  0.26247661     0.08900
H1904       H  0.23100092  0.06420951  0.25368644     0.05700
C1905       C  0.59577068  0.10690889  0.26426965    -0.20100
C1906       C  0.57096796  0.11343429  0.25221588    -0.06700
C1907       C  0.56731676  0.10845434  0.22452083     0.14200
C1908       C  0.58632572  0.09271584  0.21125557    -0.20200
C1909       C  0.60812488  0.08186361  0.22518549    -0.06700
C1910       C  0.61413022  0.09038881  0.25119138     0.14100
C1911       C  0.63870118  0.08033838  0.26569868    -0.23500
H1912       H  0.59952548  0.11214354  0.28499029     0.15400
H1913       H  0.58250882  0.08628154  0.19086933     0.15500
C1914       C  0.54278679  0.11747290  0.20921489    -0.23500
H1915       H  0.64037123  0.08907591  0.28607256     0.05700
H1916       H  0.65701990  0.08584960  0.25423177     0.08900
H1917       H  0.63778816  0.05825132  0.26773910     0.08900
H1918       H  0.54036338  0.13945135  0.21120718     0.08900
H1919       H  0.52457716  0.10706715  0.21673788     0.08900
H1920       H  0.54450266  0.11285451  0.18752603     0.05700
C1921       C  0.60116959  0.90336296  0.23046130    -0.20100
C1922       C  0.61377238  0.92419818  0.24435068    -0.06700
C1923       C  0.61180794  0.92580471  0.27233030     0.14200
C1924       C  0.59384011  0.90888016  0.28542578    -0.20200
C1925       C  0.57726538  0.89129359  0.27083399    -0.06700
C1926       C  0.58246443  0.88695389  0.24332036     0.14100
C1927       C  0.56784362  0.86608847  0.22708757    -0.23500
H1928       H  0.60361508  0.90187726  0.20892580     0.15400
H1929       H  0.59096497  0.91139249  0.30678714     0.15500
C1930       C  0.62782636  0.94594205  0.28814704    -0.23500
H1931       H  0.57666123  0.86396173  0.20675680     0.05700
H1932       H  0.54643817  0.87169886  0.22439422     0.08900
H1933       H  0.56931848  0.84638729  0.23720679     0.08900
H1934       H  0.62195767  0.96659040  0.28256361     0.08900
H1935       H  0.64960366  0.94309602  0.28410031     0.08900
H1936       H  0.62452162  0.94366367  0.31002632     0.05700
C1937       C  0.66920316  0.08166292  0.10524911    -0.20100
C1938       C  0.65251244  0.05941342  0.10065760    -0.06700
C1939       C  0.64035548  0.05636799  0.07519824     0.14200
C1940       C  0.64304436  0.07684674  0.05627927    -0.20200
C1941       C  0.65730162  0.10044701  0.06196986    -0.06700
C1942       C  0.67176404  0.10224552  0.08632349     0.14100
C1943       C  0.68887607  0.12614411  0.09328984    -0.23500
H1944       H  0.67921784  0.08376520  0.12439903     0.15400
H1945       H  0.63283480  0.07485861  0.03720954     0.15500
C1946       C  0.62436341  0.03186309  0.06758154    -0.23500
H1947       H  0.69856899  0.12395553  0.11320418     0.05700
H1948       H  0.67629402  0.14447055  0.09389173     0.08900
H1949       H  0.70516002  0.12847691  0.07824919     0.08900
H1950       H  0.60539405  0.03096166  0.07924588     0.08900
H1951       H  0.63652771  0.01359105  0.07119047     0.08900
H1952       H  0.61866651  0.03204564  0.04607944     0.05700
C1953       C  0.51067858  0.99402418  0.14370306    -0.20100
C1954       C  0.52437626  0.99121299  0.16842547    -0.06700
C1955       C  0.50799913  0.98664157  0.19147283     0.14200
C1956       C  0.47959505  0.98642734  0.18936778    -0.20200
C1957       C  0.46575830  0.99031292  0.16501251    -0.06700
C1958       C  0.48196651  0.99347795  0.14166402     0.14100
C1959       C  0.46931802  0.99646292  0.11446107    -0.23500
H1960       H  0.52250388  0.99699624  0.12572813     0.15400
H1961       H  0.46797772  0.98326131  0.20743529     0.15500
C1962       C  0.51988389  0.98168097  0.21884652    -0.23500
H1963       H  0.48469639  0.99864024  0.09846733     0.05700
H1964       H  0.45634290  0.01451580  0.11404915     0.08900
H1965       H  0.45710884  0.97847034  0.10979849     0.08900
H1966       H  0.53080447  0.99971614  0.22585238     0.08900
H1967       H  0.53363205  0.96419349  0.21813104     0.08900
H1968       H  0.50421697  0.97721566  0.23406700     0.05700
C1969       C  0.56635893  0.84921362  0.44257542    -0.20100
C1970       C  0.58882977  0.83289648  0.43809046    -0.06700
C1971       C  0.58908821  0.81523113  0.41604896     0.14200
C1972       C  0.56800140  0.81642930  0.39737352    -0.20200
C1973       C  0.54724805  0.83520946  0.40026904    -0.06700
C1974       C  0.54549250  0.85060171  0.42387318     0.14100
C1975       C  0.52207546  0.86910125  0.42896557    -0.23500
H1976       H  0.56607704  0.86233020  0.45985704     0.15400
H1977       H  0.56903559  0.80449805  0.37928632     0.15500
C1978       C  0.61257636  0.79689780  0.41097345    -0.23500
H1979       H  0.52340929  0.87863417  0.44900441     0.05700
H1980       H  0.50298796  0.85760489  0.42809079     0.08900
H1981       H  0.52154800  0.88531016  0.41382644     0.08900
H1982       H  0.61487854  0.78284725  0.42802547     0.08900
H1983       H  0.63129883  0.80878897  0.40867883     0.08900
H1984       H  0.60973886  0.78490624  0.39247504     0.05700
C1985       C  0.61675914  0.15717162  0.39767779    -0.20100
C1986       C  0.60905738  0.15687300  0.42464779    -0.06700
C1987       C  0.58162850  0.15964866  0.43161495     0.14200
C1988       C  0.56228614  0.16082372  0.41124636    -0.20200
C1989       C  0.56988637  0.15861279  0.38436200    -0.06700
C1990       C  0.59735767  0.15748903  0.37736258     0.14100
C1991       C  0.60608586  0.15560488  0.34851839    -0.23500
H1992       H  0.63784844  0.15509983  0.39252189     0.15400
H1993       H  0.54109854  0.16165250  0.41634642     0.15500
C1994       C  0.57270727  0.16080826  0.46043738    -0.23500
H1995       H  0.62834274  0.15530272  0.34658438     0.05700
H1996       H  0.59833710  0.17311019  0.33723380     0.08900
H1997       H  0.59813669  0.13698755  0.33937487     0.08900
H1998       H  0.58306778  0.17752698  0.47079464     0.08900
H1999       H  0.57754749  0.14175450  0.47066917     0.08900
H2000       H  0.55066782  0.16403899  0.46218257     0.05700
C2001       C  0.74474144  0.23065186  0.47816323    -0.20100
C2002       C  0.73232396  0.22194234  0.50198436    -0.06700
C2003       C  0.73988108  0.23526796  0.52608486     0.14200
C2004       C  0.75956136  0.25592202  0.52557562    -0.20200
C2005       C  0.77235798  0.26417396  0.50174117    -0.06700
C2006       C  0.76440943  0.25108641  0.47759790     0.14100
C2007       C  0.77695786  0.25761753  0.45084354    -0.23500
H2008       H  0.73944714  0.22091323  0.45952810     0.15400
H2009       H  0.76524040  0.26550957  0.54418196     0.15500
C2010       C  0.72755107  0.22795375  0.55264517    -0.23500
H2011       H  0.76875747  0.24501677  0.43446018     0.05700
H2012       H  0.79898951  0.25401139  0.45159072     0.08900
H2013       H  0.77276432  0.27874355  0.44547073     0.08900
H2014       H  0.73253751  0.20693386  0.55775137     0.08900
H2015       H  0.70539231  0.23057010  0.55174254     0.08900
H2016       H  0.73521691  0.24076422  0.56912301     0.05700
C2017       C  0.67530969  0.00853388  0.50936150    -0.20100
C2018       C  0.65842206  0.02370302  0.49255260    -0.06700
C2019       C  0.63982046  0.00931770  0.47639514     0.14200
C2020       C  0.63929792  0.98074680  0.47696763    -0.20200
C2021       C  0.65629746  0.96560319  0.49391143    -0.06700
C2022       C  0.67438031  0.98021847  0.51051925     0.14100
C2023       C  0.69376186  0.96621171  0.52904138    -0.23500
H2024       H  0.68958610  0.01904004  0.52192789     0.15400
H2025       H  0.62539719  0.97016074  0.46406596     0.15500
C2026       C  0.62104069  0.02391193  0.45782998    -0.23500
H2027       H  0.70732786  0.98050872  0.53938909     0.05700
H2028       H  0.70653985  0.95212099  0.51748819     0.08900
H2029       H  0.68250734  0.95521350  0.54475663     0.08900
H2030       H  0.63280114  0.03635539  0.44361187     0.08900
H2031       H  0.60732247  0.03690016  0.46958866     0.08900
H2032       H  0.60846823  0.00986356  0.44600672     0.05700
C2033       C  0.76672655  0.10449753  0.42172799    -0.20100
C2034       C  0.73867858  0.10579048  0.42092135    -0.06700
C2035       C  0.72418754  0.09298844  0.40023951     0.14200
C2036       C  0.73817757  0.07709548  0.38198668    -0.20200
C2037       C  0.76601366  0.07406063  0.38417497    -0.06700
C2038       C  0.78070773  0.08871542  0.40337761     0.14100
C2039       C  0.81079358  0.08576966  0.40609161    -0.23500
H2040       H  0.77747774  0.11440224  0.43779571     0.15400
H2041       H  0.72722600  0.06533726  0.36736455     0.15500
C2042       C  0.69387807  0.09405818  0.39884187    -0.23500
H2043       H  0.81889987  0.09833461  0.42254797     0.05700
H2044       H  0.82072336  0.09199874  0.38717956     0.08900
H2045       H  0.81604086  0.06463022  0.41047487     0.08900
H2046       H  0.68717724  0.11504581  0.39607681     0.08900
H2047       H  0.68505606  0.08593894  0.41759210     0.08900
H2048       H  0.68593071  0.08212858  0.38183702     0.05700
C2049       C  0.72654817  0.92722326  0.37625530    -0.20100
C2050       C  0.75361732  0.91998922  0.37425554    -0.06700
C2051       C  0.76238447  0.89508162  0.38410499     0.14200
C2052       C  0.74449956  0.87975021  0.39935357    -0.20200
C2053       C  0.71854145  0.88925885  0.40522062    -0.06700
C2054       C  0.70877728  0.91236826  0.39191371     0.14100
C2055       C  0.68077653  0.92331014  0.39609231    -0.23500
H2056       H  0.72004243  0.94616724  0.36787538     0.15400
H2057       H  0.75163297  0.86156617  0.40881043     0.15500
C2058       C  0.79106431  0.88587762  0.38078740    -0.23500
H2059       H  0.67708452  0.94155369  0.38394322     0.05700
H2060       H  0.67784423  0.92888157  0.41741282     0.08900
H2061       H  0.66564340  0.90817350  0.39000969     0.08900
H2062       H  0.80499103  0.90041707  0.39026440     0.08900
H2063       H  0.79591069  0.88412073  0.35915999     0.08900
H2064       H  0.79447709  0.86604819  0.39021620     0.05700
C2065       C  0.88692388  0.08896397  0.33436275    -0.20100
C2066       C  0.89519064  0.06360360  0.34321517    -0.06700
C2067       C  0.92238837  0.05970415  0.35067550     0.14200
C2068       C  0.93999899  0.08161195  0.35076692    -0.20200
C2069       C  0.93126406  0.10728766  0.34350222    -0.06700
C2070       C  0.90451032  0.11089223  0.33452611     0.14100
C2071       C  0.89378296  0.13799010  0.32666880    -0.23500
H2072       H  0.86612767  0.09200691  0.32859248     0.15400
H2073       H  0.96064810  0.07880442  0.35717060     0.15500
C2074       C  0.93322206  0.03255575  0.35806852    -0.23500
H2075       H  0.87207565  0.13721129  0.32146480     0.05700
H2076       H  0.90473535  0.14553177  0.30883799     0.08900
H2077       H  0.89619313  0.15223870  0.34354781     0.08900
H2078       H  0.92900986  0.01831753  0.34158135     0.08900
H2079       H  0.92393981  0.02534568  0.37692047     0.08900
H2080       H  0.95533425  0.03298363  0.36124798     0.05700
C2081       C  0.76278184  0.02069902  0.25465522    -0.20100
C2082       C  0.76972506  0.99634202  0.26710225    -0.06700
C2083       C  0.75587221  0.97289581  0.25859688     0.14200
C2084       C  0.73538295  0.97474963  0.23915216    -0.20200
C2085       C  0.72740392  0.99925847  0.22774363    -0.06700
C2086       C  0.74198477  0.02254121  0.23534099     0.14100
C2087       C  0.73579103  0.04960018  0.22358975    -0.23500
H2088       H  0.77321320  0.03874823  0.26064263     0.15400
H2089       H  0.72475794  0.95669124  0.23355789     0.15500
C2090       C  0.76147959  0.94567204  0.27041701    -0.23500
H2091       H  0.74988785  0.06518696  0.23093109     0.05700
H2092       H  0.71518154  0.05589848  0.22935107     0.08900
H2093       H  0.73760900  0.04880808  0.20144686     0.08900
H2094       H  0.75719173  0.94580394  0.29223771     0.08900
H2095       H  0.78274539  0.94000219  0.26671235     0.08900
H2096       H  0.74869252  0.92986364  0.26137616     0.05700
C2097       C  0.71957794  0.05703700  0.60345964    -0.20100
C2098       C  0.74416982  0.06503485  0.61448430    -0.06700
C2099       C  0.75186494  0.09229827  0.61314287     0.14200
C2100       C  0.73848849  0.10914796  0.59527057    -0.20200
C2101       C  0.71701823  0.09934221  0.58025975    -0.06700
C2102       C  0.70587107  0.07405218  0.58603193     0.14100
C2103       C  0.68076446  0.06431426  0.57217000    -0.23500
H2104       H  0.71297123  0.03647863  0.60546142     0.15400
H2105       H  0.74610473  0.12912599  0.59155976     0.15500
C2106       C  0.77510956  0.10352690  0.62889566    -0.23500
H2107       H  0.67477310  0.04409566  0.57918386     0.05700
H2108       H  0.68408788  0.06325149  0.55024774     0.08900
H2109       H  0.66392609  0.07829181  0.57634541     0.08900
H2110       H  0.79148138  0.10965800  0.61506189     0.08900
H2111       H  0.78315583  0.08895342  0.64360899     0.08900
H2112       H  0.76824440  0.12129088  0.64034519     0.05700
C2113       C  0.75557971  0.90130178  0.59926531    -0.20100
C2114       C  0.77596019  0.91684023  0.58792892    -0.06700
C2115       C  0.78297868  0.91358889  0.56066164     0.14200
C2116       C  0.76768911  0.89646672  0.54480806    -0.20200
C2117       C  0.74513760  0.88347421  0.55535313    -0.06700
C2118       C  0.74008923  0.88432027  0.58326379     0.14100
C2119       C  0.71816129  0.86797602  0.59620741    -0.23500
H2120       H  0.75092110  0.90350583  0.62036233     0.15400
H2121       H  0.77169260  0.89551388  0.52348420     0.15500
C2122       C  0.80472674  0.93004954  0.54743660    -0.23500
H2123       H  0.71923994  0.86899126  0.61839680     0.05700
H2124       H  0.72019803  0.84668767  0.59024668     0.08900
H2125       H  0.69811614  0.87557961  0.59033311     0.08900
H2126       H  0.82453002  0.92554403  0.55662193     0.08900
H2127       H  0.80010180  0.95164732  0.54967896     0.08900
H2128       H  0.80640188  0.92576716  0.52567722     0.05700
C2129       C  0.87264656  0.10010235  0.64434302    -0.20100
C2130       C  0.88069521  0.07410513  0.65100806    -0.06700
C2131       C  0.90715654  0.06937662  0.66012104     0.14200
C2132       C  0.92537217  0.09080449  0.66116051    -0.20200
C2133       C  0.91772068  0.11652825  0.65285609    -0.06700
C2134       C  0.89081327  0.12143483  0.64517887     0.14100
C2135       C  0.88107817  0.14908430  0.63797710    -0.23500
H2136       H  0.85215697  0.10357112  0.63774812     0.15400
H2137       H  0.94606396  0.08716507  0.66696790     0.15500
C2138       C  0.91667723  0.04161747  0.66707667    -0.23500
H2139       H  0.85904416  0.14942098  0.63429820     0.05700
H2140       H  0.89106892  0.15621474  0.61945458     0.08900
H2141       H  0.88544564  0.16310105  0.65465310     0.08900
H2142       H  0.91411941  0.02818251  0.64955926     0.08900
H2143       H  0.90489559  0.03370940  0.68421116     0.08900
H2144       H  0.93826186  0.04143361  0.67281987     0.05700
C2145       C  0.81381290  0.01377685  0.50991068    -0.20100
C2146       C  0.83513466  0.00144137  0.52376505    -0.06700
C2147       C  0.85504184  0.98821692  0.50815204     0.14200
C2148       C  0.85293459  0.98755065  0.47974303    -0.20200
C2149       C  0.83106092  0.99909943  0.46595079    -0.06700
C2150       C  0.81131418  0.01262049  0.48165530     0.14100
C2151       C  0.78757001  0.02649550  0.46894840    -0.23500
H2152       H  0.79840231  0.02392741  0.52141943     0.15400
H2153       H  0.86830581  0.97736192  0.46823124     0.15500
C2154       C  0.87898137  0.97518654  0.52120694    -0.23500
H2155       H  0.77526574  0.03743947  0.48393722     0.05700
H2156       H  0.77418326  0.01161651  0.45927255     0.08900
H2157       H  0.79466463  0.04125340  0.45391022     0.08900
H2158       H  0.87232745  0.95818633  0.53384797     0.08900
H2159       H  0.88983776  0.99003530  0.53370364     0.08900
H2160       H  0.89334548  0.96720921  0.50616077     0.05700
C2161       C  0.81913083  0.59101204  0.42090918    -0.20100
C2162       C  0.83695481  0.59065942  0.44267470    -0.06700
C2163       C  0.85390192  0.56832448  0.44657655     0.14200
C2164       C  0.85523734  0.54866547  0.42682026    -0.20200
C2165       C  0.83995478  0.55065936  0.40336291    -0.06700
C2166       C  0.82046975  0.57114933  0.40100504     0.14100
C2167       C  0.80278128  0.57344772  0.37663020    -0.23500
H2168       H  0.80599854  0.60809381  0.41816530     0.15400
H2169       H  0.86963915  0.53251158  0.42897739     0.15500
C2170       C  0.87180332  0.56527448  0.47076108    -0.23500
H2171       H  0.78920934  0.59104722  0.37786096     0.05700
H2172       H  0.79006995  0.55529350  0.37480570     0.08900
H2173       H  0.81535999  0.57563298  0.35838469     0.08900
H2174       H  0.86875076  0.58129466  0.48578561     0.08900
H2175       H  0.89321266  0.56543682  0.46440828     0.08900
H2176       H  0.86739383  0.54593767  0.48077042     0.05700
C2177       C  0.76460691  0.74292781  0.46245060    -0.20100
C2178       C  0.76723402  0.72569979  0.48457052    -0.06700
C2179       C  0.74714475  0.72711848  0.50477227     0.14200
C2180       C  0.72669881  0.74707000  0.50345733    -0.20200
C2181       C  0.72555159  0.76574059  0.48229721    -0.06700
C2182       C  0.74406325  0.76242404  0.46085337     0.14100
C2183       C  0.74223078  0.77937961  0.43592764    -0.23500
H2184       H  0.77936124  0.74167157  0.44651402     0.15400
H2185       H  0.71257575  0.74908473  0.51985711     0.15500
C2186       C  0.74812726  0.70868093  0.52854931    -0.23500
H2187       H  0.75676714  0.77276758  0.42038512     0.05700
H2188       H  0.74676898  0.80057857  0.44051894     0.08900
H2189       H  0.72170190  0.77781121  0.42730666     0.08900
H2190       H  0.76742228  0.71135528  0.53940814     0.08900
H2191       H  0.74638452  0.68763085  0.52172671     0.08900
H2192       H  0.73141920  0.71267713  0.54276375     0.05700
C2193       C  0.15494488  0.61624573  0.39950078    -0.20100
C2194       C  0.16328132  0.61125201  0.42585427    -0.06700
C2195       C  0.17452996  0.58620000  0.43260648     0.14200
C2196       C  0.17490665  0.56587229  0.41330636    -0.20200
C2197       C  0.16487833  0.57043354  0.38753016    -0.06700
C2198       C  0.15585689  0.59609313  0.38010303     0.14100
C2199       C  0.14578462  0.60173274  0.35218811    -0.23500
H2200       H  0.14652045  0.63560181  0.39445191     0.15400
H2201       H  0.18188591  0.54603862  0.41864665     0.15500
C2202       C  0.18442421  0.58029583  0.46050580    -0.23500
H2203       H  0.13918922  0.62282809  0.34988831     0.05700
H2204       H  0.12840382  0.58859233  0.34753283     0.08900
H2205       H  0.16209881  0.59792777  0.33748478     0.08900
H2206       H  0.16789711  0.58324908  0.47514823     0.08900
H2207       H  0.20136089  0.59385418  0.46552453     0.08900
H2208       H  0.19173548  0.55939947  0.46243556     0.05700
C2209       C  0.24534600  0.72818875  0.49661889    -0.20100
C2210       C  0.22188525  0.73134923  0.51226254    -0.06700
C2211       C  0.22028611  0.75433819  0.52900514     0.14200
C2212       C  0.24051276  0.77402395  0.52794189    -0.20200
C2213       C  0.26291338  0.77201804  0.51085135    -0.06700
C2214       C  0.26581659  0.74811280  0.49576191     0.14100
C2215       C  0.28981136  0.74395472  0.47788687    -0.23500
H2216       H  0.24713150  0.71064837  0.48402370     0.15400
H2217       H  0.23833794  0.79175461  0.54023161     0.15500
C2218       C  0.19732077  0.75860655  0.54837436    -0.23500
H2219       H  0.28877957  0.72452043  0.46718874     0.05700
H2220       H  0.30847778  0.74405038  0.49008103     0.08900
H2221       H  0.29081256  0.76012319  0.46268729     0.08900
H2222       H  0.19465412  0.74057732  0.56107768     0.08900
H2223       H  0.17845155  0.76307045  0.53741300     0.08900
H2224       H  0.20107891  0.77580730  0.56192764     0.05700
C2225       C  0.01334227  0.65512749  0.51921339    -0.20100
C2226       C  0.02731974  0.65307239  0.49469476    -0.06700
C2227       C  0.01137413  0.65120180  0.47105990     0.14200
C2228       C  0.98278614  0.65178820  0.47268617    -0.20200
C2229       C  0.96881378  0.65465505  0.49718729    -0.06700
C2230       C  0.98483285  0.65622092  0.52083775     0.14100
C2231       C  0.97236090  0.65929261  0.54818442    -0.23500
H2232       H  0.02490354  0.65663421  0.53752201     0.15400
H2233       H  0.97123114  0.65052876  0.45434462     0.15500
C2234       C  0.02412068  0.64843145  0.44382674    -0.23500
H2235       H  0.98774429  0.65954136  0.56430861     0.05700
H2236       H  0.95858901  0.64229726  0.55224345     0.08900
H2237       H  0.96121201  0.67848571  0.54935569     0.08900
H2238       H  0.03741004  0.63059247  0.44344642     0.08900
H2239       H  0.03591885  0.66664094  0.43900985     0.08900
H2240       H  0.00882808  0.64595099  0.42780980     0.05700
C2241       C  0.09810701  0.75504500  0.38690843    -0.20100
C2242       C  0.09018130  0.77992497  0.39685889    -0.06700
C2243       C  0.09955357  0.78862769  0.42208448     0.14200
C2244       C  0.11221173  0.77013967  0.43873765    -0.20200
C2245       C  0.11513535  0.74338749  0.43075816    -0.06700
C2246       C  0.11062723  0.73644501  0.40356134     0.14100
C2247       C  0.11740195  0.70936732  0.39202972    -0.23500
H2248       H  0.09187246  0.74913565  0.36695722     0.15400
H2249       H  0.11727520  0.77605322  0.45898967     0.15500
C2250       C  0.09390152  0.81627562  0.43276566    -0.23500
H2251       H  0.11534061  0.70915975  0.36988086     0.05700
H2252       H  0.10353287  0.69388231  0.39991717     0.08900
H2253       H  0.13855998  0.70413182  0.39684231     0.08900
H2254       H  0.07191168  0.81943931  0.43458769     0.08900
H2255       H  0.10263434  0.83146981  0.41908765     0.08900
H2256       H  0.10284500  0.81937654  0.45290703     0.05700
C2257       C  0.91047559  0.76007616  0.38836309    -0.20100
C2258       C  0.93697500  0.75049039  0.38531013    -0.06700
C2259       C  0.94283725  0.72366742  0.39214188     0.14200
C2260       C  0.92318764  0.70873103  0.40539260    -0.20200
C2261       C  0.89847409  0.72023101  0.41265881    -0.06700
C2262       C  0.89119988  0.74539242  0.40241331     0.14100
C2263       C  0.86352803  0.75700839  0.40665858    -0.23500
H2264       H  0.90536920  0.78005228  0.38163942     0.15400
H2265       H  0.92832540  0.68894545  0.41265752     0.15500
C2266       C  0.97006624  0.71111065  0.38763719    -0.23500
H2267       H  0.86094014  0.77614102  0.39565669     0.05700
H2268       H  0.85997341  0.76117984  0.42816263     0.08900
H2269       H  0.84810919  0.74275654  0.39925727     0.08900
H2270       H  0.98559738  0.72177886  0.39949195     0.08900
H2271       H  0.97520968  0.71179050  0.36601494     0.08900
H2272       H  0.97048477  0.68981302  0.39394922     0.05700
C2273       C  0.07402972  0.90576672  0.31702003    -0.20100
C2274       C  0.05316589  0.90636864  0.33590618    -0.06700
C2275       C  0.04886769  0.92960571  0.35135696     0.14200
C2276       C  0.06785295  0.95016123  0.35030730    -0.20200
C2277       C  0.09084759  0.94790773  0.33421801    -0.06700
C2278       C  0.09317957  0.92636664  0.31608611     0.14100
C2279       C  0.11692657  0.92386444  0.29752117    -0.23500
H2280       H  0.07681707  0.88806010  0.30481928     0.15400
H2281       H  0.06581944  0.96716819  0.36361959     0.15500
C2282       C  0.02474120  0.93248909  0.36948702    -0.23500
H2283       H  0.11572419  0.90548425  0.28510266     0.05700
H2284       H  0.13585685  0.92301479  0.30927853     0.08900
H2285       H  0.11754427  0.94132394  0.28380919     0.08900
H2286       H  0.02546639  0.91763649  0.38594621     0.08900
H2287       H  0.00602359  0.92959302  0.35771399     0.08900
H2288       H  0.02387583  0.95264007  0.37879118     0.05700
C2289       C  0.93801377  0.91045329  0.33441502    -0.20100
C2290       C  0.92985508  0.88399756  0.33872520    -0.06700
C2291       C  0.90243858  0.87790248  0.34245007     0.14200
C2292       C  0.88374260  0.89875734  0.34296274    -0.20200
C2293       C  0.89214786  0.92541670  0.34092671    -0.06700
C2294       C  0.91940388  0.93142306  0.33590410     0.14100
C2295       C  0.92887798  0.95980679  0.33262757    -0.23500
H2296       H  0.95920971  0.91483903  0.33172876     0.15400
H2297       H  0.86267407  0.89436776  0.34651378     0.15500
C2298       C  0.89304353  0.84952382  0.34651926    -0.23500
H2299       H  0.95072316  0.96081135  0.32803761     0.05700
H2300       H  0.92531683  0.97101062  0.35145244     0.08900
H2301       H  0.91776392  0.96952765  0.31598164     0.08900
H2302       H  0.90202074  0.84107568  0.36501939     0.08900
H2303       H  0.89914708  0.83712274  0.32911474     0.08900
H2304       H  0.87081994  0.84834538  0.34851127     0.05700
C2305       C  0.04103751  0.73372492  0.24682691    -0.20100
C2306       C  0.01809569  0.72770756  0.23148818    -0.06700
C2307       C  0.99449919  0.74302540  0.23584638     0.14200
C2308       C  0.99411855  0.76298602  0.25600629    -0.20200
C2309       C  0.01663499  0.76784983  0.27237530    -0.06700
C2310       C  0.04065103  0.75353724  0.26698267     0.14100
C2311       C  0.06600474  0.75906072  0.28257454    -0.23500
H2312       H  0.05916981  0.72209812  0.24368702     0.15400
H2313       H  0.97560094  0.77365218  0.26013016     0.15500
C2314       C  0.96909537  0.73704202  0.22058604    -0.23500
H2315       H  0.08321780  0.74705720  0.27504616     0.05700
H2316       H  0.06309836  0.75402535  0.30400661     0.08900
H2317       H  0.07138360  0.78052984  0.28070593     0.08900
H2318       H  0.96291513  0.71599912  0.22414707     0.08900
H2319       H  0.97255993  0.74013229  0.19885192     0.08900
H2320       H  0.95227260  0.75024048  0.22686482     0.05700
C2321       C  0.05788434  0.72385505  0.61212057    -0.20100
C2322       C  0.06474681  0.75080814  0.61515156    -0.06700
C2323       C  0.08957510  0.76035675  0.60527926     0.14200
C2324       C  0.10541584  0.74333995  0.58972395    -0.20200
C2325       C  0.09672611  0.71739919  0.58358090    -0.06700
C2326       C  0.07359725  0.70684685  0.59638824     0.14100
C2327       C  0.06390470  0.67861932  0.59185614    -0.23500
H2328       H  0.03897392  0.71671121  0.62026314     0.15400
H2329       H  0.12355978  0.75104514  0.58044952     0.15500
C2330       C  0.09827361  0.78904198  0.60879312    -0.23500
H2331       H  0.04525954  0.67423324  0.60331323     0.05700
H2332       H  0.07952389  0.66422098  0.59852112     0.08900
H2333       H  0.05936615  0.67548245  0.57033418     0.08900
H2334       H  0.10041484  0.79362150  0.63042950     0.08900
H2335       H  0.08320501  0.80268533  0.59969219     0.08900
H2336       H  0.11796100  0.79304340  0.59905990     0.05700
C2337       C  0.89928059  0.75403066  0.60877585    -0.20100
C2338       C  0.90994628  0.77820630  0.59986449    -0.06700
C2339       C  0.90284157  0.78827516  0.57445913     0.14200
C2340       C  0.88858328  0.77187021  0.55677387    -0.20200
C2341       C  0.88191509  0.74559579  0.56404023    -0.06700
C2342       C  0.88519358  0.73742091  0.59114525     0.14100
C2343       C  0.87530762  0.71081080  0.60151036    -0.23500
H2344       H  0.90451348  0.74681772  0.62858081     0.15400
H2345       H  0.88512272  0.77867064  0.53645973     0.15500
C2346       C  0.91196955  0.81559911  0.56545771    -0.23500
H2347       H  0.87643268  0.70977934  0.62370070     0.05700
H2348       H  0.88786502  0.69423575  0.59368402     0.08900
H2349       H  0.85396802  0.70781350  0.59569957     0.08900
H2350       H  0.93426745  0.81661544  0.56494186     0.08900
H2351       H  0.90425367  0.83093940  0.57957527     0.08900
H2352       H  0.90438856  0.82050024  0.54512258     0.05700
C2353       C  0.91198608  0.89713241  0.67214621    -0.20100
C2354       C  0.93537568  0.90045302  0.65659892    -0.06700
C2355       C  0.94114120  0.92608089  0.64571753     0.14200
C2356       C  0.92162270  0.94614154  0.64726150    -0.20200
C2357       C  0.89690473  0.94151149  0.65973364    -0.06700
C2358       C  0.89259869  0.91747852  0.67381765     0.14100
C2359       C  0.86683129  0.91260731  0.68893063    -0.23500
H2360       H  0.90786712  0.87796495  0.68139765     0.15400
H2361       H  0.92488786  0.96500297  0.63703202     0.15500
C2362       C  0.96737491  0.93260845  0.63193782    -0.23500
H2363       H  0.86666282  0.89262198  0.69863156     0.05700
H2364       H  0.84941684  0.91372878  0.67506708     0.08900
H2365       H  0.86450397  0.92795583  0.70482058     0.08900
H2366       H  0.96875211  0.92220423  0.61238491     0.08900
H2367       H  0.98449533  0.92680284  0.64496331     0.08900
H2368       H  0.96924991  0.95434869  0.62776678     0.05700
C2369       C  0.05688608  0.91787862  0.64578325    -0.20100
C2370       C  0.06528160  0.89154406  0.65073796    -0.06700
C2371       C  0.09249383  0.88652242  0.65729792     0.14200
C2372       C  0.11089071  0.90780707  0.65687783    -0.20200
C2373       C  0.10275229  0.93373492  0.64977523    -0.06700
C2374       C  0.07520851  0.93906220  0.64521033     0.14100
C2375       C  0.06485911  0.96695271  0.63989738    -0.23500
H2376       H  0.03588153  0.92179201  0.64146683     0.15400
H2377       H  0.13199919  0.90391199  0.66069365     0.15500
C2378       C  0.10261348  0.85873001  0.66317793    -0.23500
H2379       H  0.04253355  0.96752267  0.63909640     0.05700
H2380       H  0.07234623  0.97440181  0.62035737     0.08900
H2381       H  0.07145177  0.98061435  0.65614237     0.08900
H2382       H  0.09840647  0.84538681  0.64591862     0.08900
H2383       H  0.09260812  0.85079806  0.68139030     0.08900
H2384       H  0.12465026  0.85848040  0.66683922     0.05700
C2385       C  0.98279532  0.85200749  0.51277202    -0.20100
C2386       C  0.00213573  0.83666389  0.52655405    -0.06700
C2387       C  0.02220656  0.82360484  0.51105232     0.14200
C2388       C  0.02210655  0.82581854  0.48274920    -0.20200
C2389       C  0.00203078  0.84006097  0.46887230    -0.06700
C2390       C  0.98223817  0.85352379  0.48435354     0.14100
C2391       C  0.96066241  0.86991938  0.47102441    -0.23500
H2392       H  0.96738148  0.86213993  0.52428221     0.15400
H2393       H  0.03738334  0.81545995  0.47127395     0.15500
C2394       C  0.04416575  0.80750762  0.52422970    -0.23500
H2395       H  0.94760292  0.88010123  0.48591495     0.05700
H2396       H  0.94765555  0.85687157  0.45858832     0.08900
H2397       H  0.97004025  0.88547773  0.45819547     0.08900
H2398       H  0.03547288  0.78987015  0.53455102     0.08900
H2399       H  0.05507515  0.82012932  0.53893721     0.08900
H2400       H  0.05902448  0.80000369  0.50940905     0.05700
C2401       C  0.60348394  0.42341444  0.82558361    -0.20100
C2402       C  0.60212669  0.44146272  0.84702968    -0.06700
C2403       C  0.58043505  0.43986249  0.86522267     0.14200
C2404       C  0.56214787  0.41886581  0.86293093    -0.20200
C2405       C  0.56516715  0.39874202  0.84347596    -0.06700
C2406       C  0.58536743  0.40188824  0.82357905     0.14100
C2407       C  0.58864074  0.38259766  0.80062965    -0.23500
H2408       H  0.61986351  0.42511678  0.81134672     0.15400
H2409       H  0.54613045  0.41755469  0.87758686     0.15500
C2410       C  0.57640439  0.46000207  0.88739545    -0.23500
H2411       H  0.60465621  0.38909897  0.78654380     0.05700
H2412       H  0.56956341  0.38129791  0.78914726     0.08900
H2413       H  0.59438014  0.36255975  0.80826377     0.08900
H2414       H  0.57626718  0.48045868  0.87890491     0.08900
H2415       H  0.59251765  0.45823001  0.90263113     0.08900
H2416       H  0.55698637  0.45697117  0.89797772     0.05700
C2417       C  0.61929529  0.40569255  0.16302357    -0.20100
C2418       C  0.61142151  0.43116666  0.15402269    -0.06700
C2419       C  0.58446360  0.43530853  0.14562341     0.14200
C2420       C  0.56661682  0.41366078  0.14535623    -0.20200
C2421       C  0.57501198  0.38809081  0.15290175    -0.06700
C2422       C  0.60142338  0.38396701  0.16218695     0.14100
C2423       C  0.61091550  0.35652731  0.17023431    -0.23500
H2424       H  0.63988733  0.40243938  0.16936646     0.15400
H2425       H  0.54617858  0.41646869  0.13828745     0.15500
C2426       C  0.57416467  0.46234369  0.13691919    -0.23500
H2427       H  0.63221549  0.35674527  0.17693790     0.05700
H2428       H  0.60925541  0.34267413  0.15294518     0.08900
H2429       H  0.59833782  0.34890470  0.18694739     0.08900
H2430       H  0.58375040  0.46846705  0.11782489     0.08900
H2431       H  0.57837941  0.47742495  0.15267314     0.08900
H2432       H  0.55209421  0.46210296  0.13342703     0.05700
C2433       C  0.76338830  0.48651209  0.26714472    -0.20100
C2434       C  0.78124433  0.50837223  0.26728569    -0.06700
C2435       C  0.77586926  0.52982226  0.24939234     0.14200
C2436       C  0.75389961  0.52829924  0.23147484    -0.20200
C2437       C  0.73702344  0.50568471  0.23004411    -0.06700
C2438       C  0.74172237  0.48470820  0.24872521     0.14100
C2439       C  0.72404386  0.46027222  0.24956829    -0.23500
H2440       H  0.76712463  0.47007041  0.28077575     0.15400
H2441       H  0.75061972  0.54463997  0.21760680     0.15500
C2442       C  0.79304613  0.55468569  0.24907710    -0.23500
H2443       H  0.72944711  0.44684146  0.26644229     0.05700
H2444       H  0.72632098  0.44860707  0.23081950     0.08900
H2445       H  0.70271950  0.46633718  0.25219515     0.08900
H2446       H  0.81359611  0.54992130  0.24186820     0.08900
H2447       H  0.79408568  0.56335707  0.26951211     0.08900
H2448       H  0.78473123  0.57020975  0.23549325     0.05700
C2449       C  0.65341181  0.48918398  0.01977162    -0.20100
C2450       C  0.67145439  0.50643484  0.03299846    -0.06700
C2451       C  0.68689336  0.52418166  0.01690770     0.14200
C2452       C  0.68416196  0.52393060  0.98862006    -0.20200
C2453       C  0.66687217  0.50599519  0.97525651    -0.06700
C2454       C  0.65122264  0.48840995  0.99139993     0.14100
C2455       C  0.63174564  0.46896235  0.97897881    -0.23500
H2456       H  0.64140040  0.47560487  0.03173254     0.15400
H2457       H  0.69625947  0.53751740  0.97675532     0.15500
C2458       C  0.70590837  0.54404830  0.02943842    -0.23500
H2459       H  0.62008800  0.45791245  0.99439831     0.05700
H2460       H  0.64280297  0.45395611  0.96687574     0.08900
H2461       H  0.61724037  0.47986978  0.96607857     0.08900
H2462       H  0.72231201  0.53344420  0.04007847     0.08900
H2463       H  0.69481835  0.55693128  0.04379231     0.08900
H2464       H  0.71539416  0.55720494  0.01420344     0.05700
C2465       C  0.73925071  0.38870509  0.08460762    -0.20100
C2466       C  0.76729998  0.38682656  0.08587797    -0.06700
C2467       C  0.78175374  0.40162810  0.10522892     0.14200
C2468       C  0.76796588  0.42054199  0.12066495    -0.20200
C2469       C  0.74037867  0.42445001  0.11702050    -0.06700
C2470       C  0.72554753  0.40763816  0.09985171     0.14100
C2471       C  0.69570356  0.41138028  0.09568511    -0.23500
H2472       H  0.72841123  0.37722343  0.06968251     0.15400
H2473       H  0.77894432  0.43355765  0.13414282     0.15500
C2474       C  0.81187493  0.39937536  0.10787868    -0.23500
H2475       H  0.68748705  0.39689676  0.08095174     0.05700
H2476       H  0.69161273  0.43185592  0.08808133     0.08900
H2477       H  0.68491473  0.40842060  0.11492048     0.08900
H2478       H  0.82173559  0.40505843  0.08875494     0.08900
H2479       H  0.81738584  0.37850179  0.11308538     0.08900
H2480       H  0.81979184  0.41267856  0.12384271     0.05700
C2481       C  0.73389105  0.38365985  0.93067322    -0.20100
C2482       C  0.76176831  0.38382263  0.92802924    -0.06700
C2483       C  0.77417022  0.39884031  0.90762290     0.14200
C2484       C  0.75841682  0.41645910  0.89262349    -0.20200
C2485       C  0.73086927  0.41952411  0.89814316    -0.06700
C2486       C  0.71803687  0.40140985  0.91609536     0.14100
C2487       C  0.68822661  0.40170691  0.92206131    -0.23500
H2488       H  0.72482246  0.37151008  0.94625163     0.15400
H2489       H  0.76809592  0.42942573  0.87814116     0.15500
C2490       C  0.80420479  0.39819966  0.90338387    -0.23500
H2491       H  0.68233135  0.38549867  0.93610266     0.05700
H2492       H  0.67665325  0.39862409  0.90331178     0.08900
H2493       H  0.68245779  0.42089448  0.93165210     0.08900
H2494       H  0.81062752  0.37753763  0.89837281     0.08900
H2495       H  0.81472166  0.40485077  0.92182728     0.08900
H2496       H  0.81050502  0.41153470  0.88673555     0.05700
C2497       C  0.92758320  0.35656148  0.05469537    -0.20100
C2498       C  0.90354781  0.34401610  0.06262841    -0.06700
C2499       C  0.90347411  0.32835848  0.08634967     0.14200
C2500       C  0.92659857  0.32785883  0.10249270    -0.20200
C2501       C  0.94939092  0.34296700  0.09588228    -0.06700
C2502       C  0.95036199  0.35651097  0.07109565     0.14100
C2503       C  0.97519850  0.37121099  0.06186872    -0.23500
H2504       H  0.92825125  0.36760994  0.03603223     0.15400
H2505       H  0.92606755  0.31742116  0.12151842     0.15500
C2506       C  0.87890413  0.31341858  0.09582394    -0.23500
H2507       H  0.97267153  0.37954092  0.04140388     0.05700
H2508       H  0.99248094  0.35724094  0.06134607     0.08900
H2509       H  0.97979308  0.38819193  0.07535793     0.08900
H2510       H  0.87304070  0.29820845  0.08073623     0.08900
H2511       H  0.86205985  0.32759941  0.09921936     0.08900
H2512       H  0.88262135  0.30274687  0.11497502     0.05700
C2513       C  0.76831430  0.25686415  0.98362012    -0.20100
C2514       C  0.77186469  0.27185669  0.00725934    -0.06700
C2515       C  0.75567047  0.26498051  0.02972915     0.14200
C2516       C  0.73637725  0.24428557  0.02761933    -0.20200
C2517       C  0.73197456  0.23009214  0.00361929    -0.06700
C2518       C  0.74879923  0.23636441  0.98141894     0.14100
C2519       C  0.74651793  0.22175987  0.95511746    -0.23500
H2520       H  0.78057714  0.26161814  0.96632440     0.15400
H2521       H  0.72383020  0.23989275  0.04480369     0.15500
C2522       C  0.75753726  0.27996688  0.05586014    -0.23500
H2523       H  0.76229178  0.22810939  0.94069981     0.05700
H2524       H  0.72676959  0.22600745  0.94568933     0.08900
H2525       H  0.74886001  0.19992896  0.95841387     0.08900
H2526       H  0.75303859  0.30146767  0.05257443     0.08900
H2527       H  0.77797372  0.27764261  0.06448963     0.08900
H2528       H  0.74296102  0.27236290  0.07090203     0.05700
C2529       C  0.73632032  0.61968680  0.08517349    -0.20100
C2530       C  0.76441967  0.61900216  0.08456566    -0.06700
C2531       C  0.77881615  0.60341637  0.10331654     0.14200
C2532       C  0.76455610  0.58618136  0.12007799    -0.20200
C2533       C  0.73656089  0.58451509  0.11836481    -0.06700
C2534       C  0.72206717  0.60258148  0.10211492     0.14100
C2535       C  0.69178891  0.60215711  0.10073534    -0.23500
H2536       H  0.72559313  0.63193594  0.07078868     0.15400
H2537       H  0.77534199  0.57230128  0.13284682     0.15500
C2538       C  0.80916292  0.60276138  0.10380513    -0.23500
H2539       H  0.68391770  0.61720296  0.08637140     0.05700
H2540       H  0.68340320  0.60686443  0.12074986     0.08900
H2541       H  0.68465906  0.58214881  0.09423366     0.08900
H2542       H  0.81706454  0.62302337  0.10830316     0.08900
H2543       H  0.81702066  0.59598198  0.08412593     0.08900
H2544       H  0.81691614  0.58888684  0.11936413     0.05700
C2545       C  0.75322022  0.61747861  0.91042704    -0.20100
C2546       C  0.77568680  0.60791926  0.92411832    -0.06700
C2547       C  0.78762326  0.58343182  0.91674775     0.14200
C2548       C  0.77437098  0.56702884  0.89840708    -0.20200
C2549       C  0.74935155  0.57466167  0.88799563    -0.06700
C2550       C  0.74028136  0.60130515  0.89161308     0.14100
C2551       C  0.71643180  0.61271042  0.87690288    -0.23500
H2552       H  0.74496892  0.63692516  0.91539658     0.15400
H2553       H  0.78195328  0.54701771  0.89487900     0.15500
C2554       C  0.81319291  0.57374874  0.92978964    -0.23500
H2555       H  0.72233235  0.63176240  0.86710738     0.05700
H2556       H  0.69982970  0.61674161  0.89122533     0.08900
H2557       H  0.70910768  0.59921705  0.86086373     0.08900
H2558       H  0.81006682  0.57140375  0.95165709     0.08900
H2559       H  0.82955007  0.58844439  0.92623718     0.08900
H2560       H  0.81974487  0.55414129  0.92163390     0.05700
C2561       C  0.89606297  0.66727691  0.09527635    -0.20100
C2562       C  0.89954385  0.65068572  0.07269928    -0.06700
C2563       C  0.92420572  0.63650828  0.06981830     0.14200
C2564       C  0.94363552  0.63823998  0.08998017    -0.20200
C2565       C  0.93941469  0.65358140  0.11294707    -0.06700
C2566       C  0.91570080  0.66875645  0.11551983     0.14100
C2567       C  0.91062880  0.68543677  0.14009389    -0.23500
H2568       H  0.87746982  0.67832116  0.09768706     0.15400
H2569       H  0.96211001  0.62681587  0.08822693     0.15500
C2570       C  0.93063664  0.61936880  0.04580555    -0.23500
H2571       H  0.89085306  0.69572759  0.13914237     0.05700
H2572       H  0.92653725  0.70089112  0.14200753     0.08900
H2573       H  0.91081415  0.67250515  0.15817274     0.08900
H2574       H  0.92813581  0.63128394  0.02729852     0.08900
H2575       H  0.91736956  0.60154261  0.04533468     0.08900
H2576       H  0.95169791  0.61194385  0.04617804     0.05700
C2577       C  0.85306595  0.51585759  0.00446215    -0.20100
C2578       C  0.82850970  0.52979307  0.00746310    -0.06700
C2579       C  0.80474674  0.51392460  0.00996561     0.14200
C2580       C  0.80633717  0.48566684  0.00942038    -0.20200
C2581       C  0.83077588  0.47167194  0.00633404    -0.06700
C2582       C  0.85454995  0.48740332  0.00383003     0.14100
C2583       C  0.88170739  0.47457565  0.00023817    -0.23500
H2584       H  0.87142937  0.52733325  0.00241875     0.15400
H2585       H  0.78788692  0.47432056  0.01140701     0.15500
C2586       C  0.77716754  0.52616563  0.01316921    -0.23500
H2587       H  0.89796647  0.48968996  0.99834928     0.05700
H2588       H  0.88181336  0.46227560  0.98173996     0.08900
H2589       H  0.88643391  0.46186728  0.01784015     0.08900
H2590       H  0.77221965  0.53856480  0.99540098     0.08900
H2591       H  0.77643467  0.53845698  0.03166182     0.08900
H2592       H  0.76117319  0.51075791  0.01492837     0.05700
C2593       C  0.56212795  0.58073310  0.84365799    -0.20100
C2594       C  0.56810468  0.60790459  0.84048796    -0.06700
C2595       C  0.59510981  0.61635142  0.83846253     0.14200
C2596       C  0.61575806  0.59740667  0.84066292    -0.20200
C2597       C  0.60978921  0.57042256  0.84507426    -0.06700
C2598       C  0.58278142  0.56181640  0.84609115     0.14100
C2599       C  0.57586091  0.53301150  0.85151689    -0.23500
H2600       H  0.54133998  0.57457637  0.84596709     0.15400
H2601       H  0.63659780  0.60377100  0.84001145     0.15500
C2602       C  0.60206626  0.64549417  0.83520000    -0.23500
H2603       H  0.55377131  0.52973513  0.85219231     0.05700
H2604       H  0.58440910  0.52699003  0.87114040     0.08900
H2605       H  0.58437654  0.52009862  0.83554926     0.08900
H2606       H  0.59446160  0.65707564  0.85259299     0.08900
H2607       H  0.59272073  0.65331521  0.81659303     0.08900
H2608       H  0.62414297  0.64863763  0.83384127     0.05700
C2609       C  0.39859570  0.57377452  0.82556480    -0.20100
C2610       C  0.39939434  0.55475690  0.84642409    -0.06700
C2611       C  0.42184637  0.55490636  0.86412294     0.14200
C2612       C  0.44113394  0.57512892  0.86176218    -0.20200
C2613       C  0.43883888  0.59536435  0.84255879    -0.06700
C2614       C  0.41801571  0.59411198  0.82346954     0.14100
C2615       C  0.41529195  0.61501289  0.80192898    -0.23500
H2616       H  0.38199998  0.57360446  0.81151771     0.15400
H2617       H  0.45750194  0.57607446  0.87609163     0.15500
C2618       C  0.42571450  0.53465158  0.88621066    -0.23500
H2619       H  0.39750497  0.61130718  0.78900485     0.05700
H2620       H  0.43345585  0.61481634  0.78899335     0.08900
H2621       H  0.41299261  0.63508765  0.81113211     0.08900
H2622       H  0.42574879  0.51420666  0.87767655     0.08900
H2623       H  0.40960033  0.53670855  0.90145608     0.08900
H2624       H  0.44516791  0.53738104  0.89680110     0.05700
C2625       C  0.57863219  0.55579327  0.15444547    -0.20100
C2626       C  0.60498615  0.56457132  0.15952088    -0.06700
C2627       C  0.60961111  0.59174886  0.16583020     0.14200
C2628       C  0.58809241  0.60972665  0.16499569    -0.20200
C2629       C  0.56217239  0.60136028  0.15781880    -0.06700
C2630       C  0.55704026  0.57387116  0.15373483     0.14100
C2631       C  0.52897254  0.56349737  0.14894797    -0.23500
H2632       H  0.57508784  0.53482985  0.15018791     0.15400
H2633       H  0.59189821  0.63080880  0.16835554     0.15500
C2634       C  0.63738768  0.60241308  0.17158210    -0.23500
H2635       H  0.52854113  0.54130988  0.14802435     0.05700
H2636       H  0.52098669  0.57114310  0.12969473     0.08900
H2637       H  0.51558258  0.56989806  0.16556108     0.08900
H2638       H  0.65093946  0.59797754  0.15451875     0.08900
H2639       H  0.64542956  0.59308817  0.19008098     0.08900
H2640       H  0.63734086  0.62440872  0.17464091     0.05700
C2641       C  0.38002053  0.59096783  0.15802942    -0.20100
C2642       C  0.38844997  0.56437142  0.15568221    -0.06700
C2643       C  0.41605281  0.55832802  0.15387304     0.14200
C2644       C  0.43470764  0.57929406  0.15290817    -0.20200
C2645       C  0.42630490  0.60608502  0.15392946    -0.06700
C2646       C  0.39866852  0.61200841  0.15742734     0.14100
C2647       C  0.38850544  0.64035602  0.15874648    -0.23500
H2648       H  0.35867296  0.59529577  0.15914020     0.15400
H2649       H  0.45591003  0.57478760  0.15052237     0.15500
C2650       C  0.42565809  0.52982047  0.15177169    -0.23500
H2651       H  0.36622812  0.64118757  0.16029410     0.05700
H2652       H  0.39454048  0.65125394  0.14036194     0.08900
H2653       H  0.39692540  0.65055094  0.17660469     0.08900
H2654       H  0.41703727  0.52028054  0.13363113     0.08900
H2655       H  0.41917434  0.51844865  0.16974707     0.08900
H2656       H  0.44792749  0.52862625  0.15038986     0.05700
C2657       C  0.52048010  0.74513272  0.23085141    -0.20100
C2658       C  0.49735510  0.72925112  0.22712294    -0.06700
C2659       C  0.47507066  0.73388831  0.24447294     0.14200
C2660       C  0.47613860  0.75478890  0.26368179    -0.20200
C2661       C  0.49861735  0.77172269  0.26589722    -0.06700
C2662       C  0.52127209  0.76627241  0.24957505     0.14100
C2663       C  0.54651937  0.78281462  0.25181256    -0.23500
H2664       H  0.53782084  0.74184081  0.21812675     0.15400
H2665       H  0.45874063  0.75878545  0.27613340     0.15500
C2666       C  0.45000215  0.71703139  0.24299875    -0.23500
H2667       H  0.56278119  0.77512613  0.23864589     0.05700
H2668       H  0.55395371  0.78239360  0.27276856     0.08900
H2669       H  0.54241273  0.80376574  0.24582716     0.08900
H2670       H  0.45531857  0.69558677  0.24526177     0.08900
H2671       H  0.43964898  0.72027469  0.22359974     0.08900
H2672       H  0.43550667  0.72221967  0.25911005     0.05700
C2673       C  0.48340061  0.68241856  0.01318986    -0.20100
C2674       C  0.49583212  0.66189208  0.02817460    -0.06700
C2675       C  0.50779488  0.64055683  0.01353368     0.14200
C2676       C  0.50731834  0.64062623  0.98501076    -0.20200
C2677       C  0.49456487  0.66104258  0.97023427    -0.06700
C2678       C  0.48242463  0.68217356  0.98481683     0.14100
C2679       C  0.46925345  0.70523779  0.97046488    -0.23500
H2680       H  0.47427176  0.69899116  0.02380773     0.15400
H2681       H  0.51689793  0.62448025  0.97413327     0.15500
C2682       C  0.52188028  0.61800775  0.02773573    -0.23500
H2683       H  0.46170431  0.72059762  0.98466577     0.05700
H2684       H  0.45187522  0.69797324  0.95857779     0.08900
H2685       H  0.48401114  0.71499004  0.95691820     0.08900
H2686       H  0.50729880  0.60686182  0.04033103     0.08900
H2687       H  0.53826390  0.62607812  0.04049121     0.08900
H2688       H  0.53092847  0.60360102  0.01340567     0.05700
C2689       C  0.61397352  0.72798439  0.07614860    -0.20100
C2690       C  0.61502540  0.75584856  0.07833256    -0.06700
C2691       C  0.60267370  0.76888512  0.10022275     0.14200
C2692       C  0.58634318  0.75395314  0.11741250    -0.20200
C2693       C  0.58250979  0.72664152  0.11297299    -0.06700
C2694       C  0.59775485  0.71309442  0.09343734     0.14100
C2695       C  0.59489342  0.68337530  0.08925738    -0.23500
H2696       H  0.62389475  0.71820696  0.05947573     0.15400
H2697       H  0.57445491  0.76400720  0.13258076     0.15500
C2698       C  0.60432838  0.79878138  0.10384518    -0.23500
H2699       H  0.60826331  0.67604714  0.07301424     0.05700
H2700       H  0.57383358  0.67840643  0.08377376     0.08900
H2701       H  0.60030129  0.67269152  0.10798770     0.08900
H2702       H  0.59593554  0.80908922  0.08601309     0.08900
H2703       H  0.62563021  0.80482893  0.10661829     0.08900
H2704       H  0.59284120  0.80556741  0.12167455     0.05700
C2705       C  0.59279411  0.77729695  0.90482109    -0.20100
C2706       C  0.61140537  0.76286987  0.92004510    -0.06700
C2707       C  0.61415530  0.73524201  0.91667135     0.14200
C2708       C  0.59538839  0.72190372  0.90089771    -0.20200
C2709       C  0.57330471  0.73564793  0.88962409    -0.06700
C2710       C  0.57335484  0.76398841  0.88960338     0.14100
C2711       C  0.55250272  0.78043263  0.87513602    -0.23500
H2712       H  0.59152841  0.79881035  0.90727938     0.15400
H2713       H  0.59674145  0.70032335  0.89957747     0.15500
C2714       C  0.63589415  0.71980785  0.93096286    -0.23500
H2715       H  0.55728484  0.80211664  0.87588291     0.05700
H2716       H  0.53247766  0.77778177  0.88457416     0.08900
H2717       H  0.55173700  0.77446078  0.85373916     0.08900
H2718       H  0.63343780  0.72170868  0.95296804     0.08900
H2719       H  0.65589744  0.72778968  0.92511972     0.08900
H2720       H  0.63532776  0.69820757  0.92584088     0.05700
C2721       C  0.65381235  0.88106314  0.09559285    -0.20100
C2722       C  0.65044151  0.88901800  0.06889091    -0.06700
C2723       C  0.64871230  0.91645174  0.06251900     0.14200
C2724       C  0.64847255  0.93522465  0.08313304    -0.20200
C2725       C  0.65022620  0.92720134  0.10987662    -0.06700
C2726       C  0.65362923  0.89989919  0.11631918     0.14100
C2727       C  0.65540425  0.89038337  0.14491518    -0.23500
H2728       H  0.65522368  0.85995043  0.10033860     0.15400
H2729       H  0.64639005  0.95629837  0.07841373     0.15500
C2730       C  0.64794970  0.92608520  0.03407945    -0.23500
H2731       H  0.65673791  0.86824983  0.14616632     0.05700
H2732       H  0.63725186  0.89679966  0.15618064     0.08900
H2733       H  0.67364668  0.89877030  0.15456619     0.08900
H2734       H  0.62932292  0.91914441  0.02408180     0.08900
H2735       H  0.66594756  0.91825727  0.02355699     0.08900
H2736       H  0.64835094  0.94825562  0.03276210     0.05700
C2737       C  0.73869336  0.75905480  0.02495788    -0.20100
C2738       C  0.72840759  0.76746503  0.00001069    -0.06700
C2739       C  0.74041002  0.75639345  0.97660638     0.14200
C2740       C  0.76125828  0.73722759  0.97894830    -0.20200
C2741       C  0.77070372  0.72795117  0.00392617    -0.06700
C2742       C  0.75919553  0.73955346  0.02730738     0.14100
C2743       C  0.76756260  0.73113474  0.05507650    -0.23500
H2744       H  0.72998984  0.76719651  0.04309270     0.15400
H2745       H  0.76973119  0.72880334  0.96083221     0.15500
C2746       C  0.73119965  0.76397386  0.94886207    -0.23500
H2747       H  0.75655303  0.74233823  0.07084453     0.05700
H2748       H  0.78934716  0.73503564  0.05797599     0.08900
H2749       H  0.76316093  0.70958077  0.05809803     0.08900
H2750       H  0.73350190  0.78584647  0.94586229     0.08900
H2751       H  0.70987990  0.75803106  0.94598634     0.08900
H2752       H  0.74315919  0.75380547  0.93307342     0.05700
C2753       C  0.38721991  0.74684347  0.08244469    -0.20100
C2754       C  0.39339497  0.77388545  0.07860861    -0.06700
C2755       C  0.41403987  0.78605425  0.09400781     0.14200
C2756       C  0.43001815  0.76990602  0.11030491    -0.20200
C2757       C  0.42565078  0.74236723  0.11158978    -0.06700
C2758       C  0.40328188  0.73078999  0.09869227     0.14100
C2759       C  0.39766306  0.70120448  0.10006830    -0.23500
H2760       H  0.37099094  0.73781108  0.07111566     0.15400
H2761       H  0.44719953  0.77842770  0.12060755     0.15500
C2762       C  0.42091002  0.81539786  0.09204234    -0.23500
H2763       H  0.37980577  0.69554600  0.08797359     0.05700
H2764       H  0.39364329  0.69544301  0.12112985     0.08900
H2765       H  0.41518832  0.68978622  0.09234760     0.08900
H2766       H  0.40329130  0.82761934  0.09810447     0.08900
H2767       H  0.42696658  0.82051417  0.07128816     0.08900
H2768       H  0.43788227  0.82090690  0.10540905     0.05700
C2769       C  0.39290814  0.76958656  0.89910343    -0.20100
C2770       C  0.38150531  0.75787293  0.92212958    -0.06700
C2771       C  0.38101135  0.72968646  0.92433509     0.14200
C2772       C  0.39705611  0.71478448  0.90693475    -0.20200
C2773       C  0.41364671  0.72755600  0.88808778    -0.06700
C2774       C  0.40940493  0.75473371  0.88211652     0.14100
C2775       C  0.42275342  0.76836334  0.85864596    -0.23500
H2776       H  0.39137847  0.79094680  0.89582613     0.15400
H2777       H  0.39896040  0.69345507  0.91028522     0.15500
C2778       C  0.36521250  0.71510007  0.94560998    -0.23500
H2779       H  0.41490249  0.78894972  0.85571060     0.05700
H2780       H  0.41873351  0.75688403  0.84004766     0.08900
H2781       H  0.44474310  0.77008197  0.86180363     0.08900
H2782       H  0.34403793  0.72217300  0.94560666     0.08900
H2783       H  0.37439926  0.71819433  0.96559735     0.08900
H2784       H  0.36493256  0.69319374  0.94195097     0.05700
C2785       C  0.32189835  0.88900839  0.08221344    -0.20100
C2786       C  0.33201965  0.89667081  0.05720722    -0.06700
C2787       C  0.33983759  0.92336924  0.05276525     0.14200
C2788       C  0.33942017  0.94140968  0.07410317    -0.20200
C2789       C  0.33210288  0.93308653  0.09989915    -0.06700
C2790       C  0.32206390  0.90686865  0.10385680     0.14100
C2791       C  0.31363192  0.89686326  0.13108079    -0.23500
H2792       H  0.31604374  0.86836429  0.08538164     0.15400
H2793       H  0.34653829  0.96167280  0.07102034     0.15500
C2794       C  0.34992918  0.93247798  0.02589701    -0.23500
H2795       H  0.30740818  0.87554167  0.13049575     0.05700
H2796       H  0.29624614  0.90866869  0.13846850     0.08900
H2797       H  0.33064887  0.89862529  0.14537109     0.08900
H2798       H  0.33453126  0.92827236  0.01035778     0.08900
H2799       H  0.36882421  0.92174047  0.02105900     0.08900
H2800       H  0.35428727  0.95426101  0.02562392     0.05700
C2801       C  0.23200455  0.74110070  0.98142669    -0.20100
C2802       C  0.23164207  0.72218586  0.00243135    -0.06700
C2803       C  0.24949329  0.72641844  0.02423577     0.14200
C2804       C  0.26834336  0.74754420  0.02343284    -0.20200
C2805       C  0.27014932  0.76526582  0.00162879    -0.06700
C2806       C  0.25100385  0.76243287  0.98073922     0.14100
C2807       C  0.25156233  0.78089852  0.95697015    -0.23500
H2808       H  0.21837786  0.73834783  0.96473081     0.15400
H2809       H  0.28255982  0.74970451  0.03974305     0.15500
C2810       C  0.24878595  0.70877611  0.04873082    -0.23500
H2811       H  0.23574105  0.77572175  0.94215795     0.05700
H2812       H  0.27140386  0.77958850  0.94683851     0.08900
H2813       H  0.24808321  0.80177360  0.96366943     0.08900
H2814       H  0.25537606  0.68821618  0.04367672     0.08900
H2815       H  0.22806742  0.70826457  0.05703698     0.08900
H2816       H  0.26240670  0.71625828  0.06468085     0.05700
C2817       C  0.48363748  0.85382751  0.98746217    -0.20100
C2818       C  0.46764370  0.83309176  0.99795967    -0.06700
C2819       C  0.48108014  0.81058902  0.00887928     0.14200
C2820       C  0.50963648  0.80939553  0.00911559    -0.20200
C2821       C  0.52590953  0.83028437  0.99900294    -0.06700
C2822       C  0.51228511  0.85289157  0.98803222     0.14100
C2823       C  0.52766480  0.87598761  0.97620501    -0.23500
H2824       H  0.47361163  0.87103392  0.97884812     0.15400
H2825       H  0.51932273  0.79186828  0.01745269     0.15500
C2826       C  0.46519396  0.78734993  0.01979610    -0.23500
H2827       H  0.51402394  0.89132543  0.96758948     0.05700
H2828       H  0.54099938  0.86873855  0.95991022     0.08900
H2829       H  0.53984452  0.88586872  0.99196838     0.08900
H2830       H  0.45215066  0.77895444  0.00383088     0.08900
H2831       H  0.45242937  0.79409310  0.03672379     0.08900
H2832       H  0.47849779  0.77110977  0.02719585     0.05700
C2833       C  0.59608492  0.84309598  0.61400330    -0.20100
C2834       C  0.56958241  0.83606662  0.60763239    -0.06700
C2835       C  0.56321723  0.82785049  0.58133623     0.14200
C2836       C  0.58354400  0.82776591  0.56171771    -0.20200
C2837       C  0.60966623  0.83654287  0.56779136    -0.06700
C2838       C  0.61617573  0.84363445  0.59439754     0.14100
C2839       C  0.64415800  0.85228265  0.60214614    -0.23500
H2840       H  0.60076792  0.84947452  0.63422847     0.15400
H2841       H  0.57861536  0.82260223  0.54121947     0.15500
C2842       C  0.53474656  0.82108662  0.57355311    -0.23500
H2843       H  0.64598794  0.85558659  0.62406230     0.05700
H2844       H  0.64927657  0.87137404  0.59208136     0.08900
H2845       H  0.65888529  0.83664045  0.59631748     0.08900
H2846       H  0.52142168  0.83850437  0.57737061     0.08900
H2847       H  0.52758739  0.80375111  0.58545439     0.08900
H2848       H  0.53316966  0.81582943  0.55200480     0.05700
C2849       C  0.44359779  0.84814727  0.57216052    -0.20100
C2850       C  0.43905717  0.83405100  0.59599614    -0.06700
C2851       C  0.41549888  0.81853555  0.59887303     0.14200
C2852       C  0.39598378  0.81921059  0.57854423    -0.20200
C2853       C  0.39946834  0.83549402  0.55594480    -0.06700
C2854       C  0.42399238  0.84915633  0.55209714     0.14100
C2855       C  0.42913217  0.86549877  0.52723523    -0.23500
H2856       H  0.46183174  0.85986009  0.57003628     0.15400
H2857       H  0.37701944  0.80888562  0.58137000     0.15500
C2858       C  0.40990803  0.80317568  0.62421823    -0.23500
H2859       H  0.44976617  0.87401489  0.52708389     0.05700
H2860       H  0.41472423  0.88238808  0.52600803     0.08900
H2861       H  0.42687033  0.85265165  0.50924855     0.08900
H2862       H  0.40954169  0.81704163  0.64157841     0.08900
H2863       H  0.42582285  0.78792710  0.62733275     0.08900
H2864       H  0.39021669  0.79271785  0.62337307     0.05700
C2865       C  0.50645460  0.74961321  0.72999890    -0.20100
C2866       C  0.48942707  0.77210214  0.73257372    -0.06700
C2867       C  0.47140788  0.77250321  0.75474976     0.14200
C2868       C  0.47238837  0.75213125  0.77427910    -0.20200
C2869       C  0.49057811  0.73064766  0.77281373    -0.06700
C2870       C  0.50725984  0.72901624  0.74978103     0.14100
C2871       C  0.52688411  0.70635352  0.74667973    -0.23500
H2872       H  0.52015687  0.74876875  0.71315128     0.15400
H2873       H  0.45913118  0.75341966  0.79147727     0.15500
C2874       C  0.45067081  0.79431691  0.75815806    -0.23500
H2875       H  0.53882387  0.70824176  0.72797545     0.05700
H2876       H  0.51582859  0.68708785  0.74593093     0.08900
H2877       H  0.54104141  0.70613147  0.76386631     0.08900
H2878       H  0.43858791  0.79631118  0.73957123     0.08900
H2879       H  0.46051578  0.81361643  0.76295522     0.08900
H2880       H  0.43655549  0.78989563  0.77483070     0.05700
C2881       C  0.59850791  0.17116637  0.57381107    -0.20100
C2882       C  0.59680054  0.15075380  0.55439808    -0.06700
C2883       C  0.57367167  0.13396404  0.55417036     0.14200
C2884       C  0.55457666  0.13666414  0.57447901    -0.20200
C2885       C  0.55798219  0.15501156  0.59528495    -0.06700
C2886       C  0.57948871  0.17329226  0.59447351     0.14100
C2887       C  0.58347018  0.19370160  0.61628794    -0.23500
H2888       H  0.61566715  0.18451877  0.57391152     0.15400
H2889       H  0.53767350  0.12295749  0.57525619     0.15500
C2890       C  0.56901932  0.11221982  0.53369703    -0.23500
H2891       H  0.60168410  0.20607853  0.61278047     0.05700
H2892       H  0.58580114  0.18350464  0.63590266     0.08900
H2893       H  0.56582522  0.20727893  0.61708559     0.08900
H2894       H  0.58444528  0.09631100  0.53577856     0.08900
H2895       H  0.56945552  0.12082204  0.51324823     0.08900
H2896       H  0.54913778  0.10240809  0.53627030     0.05700
C2897       C  0.41179077  0.16611265  0.56711480    -0.20100
C2898       C  0.38708095  0.15366216  0.57259580    -0.06700
C2899       C  0.38189642  0.14368956  0.59859532     0.14200
C2900       C  0.40232123  0.14444174  0.61777057    -0.20200
C2901       C  0.42775863  0.15485999  0.61172317    -0.06700
C2902       C  0.43237220  0.16670890  0.58643074     0.14100
C2903       C  0.45933310  0.17842316  0.57920402    -0.23500
H2904       H  0.41553459  0.17396331  0.54722810     0.15400
H2905       H  0.39875925  0.13585715  0.63740005     0.15500
C2906       C  0.35490292  0.13217724  0.60635057    -0.23500
H2907       H  0.45964509  0.18602461  0.55830759     0.05700
H2908       H  0.47522574  0.16293535  0.58112379     0.08900
H2909       H  0.46399847  0.19540535  0.59272397     0.08900
H2910       H  0.35105507  0.11328162  0.59540210     0.08900
H2911       H  0.33874581  0.14682092  0.60181205     0.08900
H2912       H  0.35389783  0.12749486  0.62806945     0.05700
C2913       C  0.53200434  0.22588057  0.74685756    -0.20100
C2914       C  0.51072054  0.22428672  0.72837554    -0.06700
C2915       C  0.49077604  0.24449829  0.72908637     0.14200
C2916       C  0.49206301  0.26486468  0.74882275    -0.20200
C2917       C  0.51294769  0.26591249  0.76796546    -0.06700
C2918       C  0.53348927  0.24620456  0.76640696     0.14100
C2919       C  0.55630858  0.24525148  0.78628612    -0.23500
H2920       H  0.54726556  0.21040030  0.74657621     0.15400
H2921       H  0.47616120  0.27964831  0.74979029     0.15500
C2922       C  0.46728880  0.24380947  0.71009576    -0.23500
H2923       H  0.56977755  0.22787890  0.78278972     0.05700
H2924       H  0.54821185  0.24348751  0.80693819     0.08900
H2925       H  0.56873361  0.26359933  0.78453680     0.08900
H2926       H  0.45601380  0.22481335  0.71263933     0.08900
H2927       H  0.47462075  0.24533841  0.68915899     0.08900
H2928       H  0.45316434  0.26063373  0.71371656     0.05700
C2929       C  0.52371572  0.98110687  0.65734723    -0.20100
C2930       C  0.49899163  0.96736702  0.65522309    -0.06700
C2931       C  0.47534645  0.98343133  0.65328736     0.14200
C2932       C  0.47713487  0.01178581  0.65413323    -0.20200
C2933       C  0.50180118  0.02548243  0.65689960    -0.06700
C2934       C  0.52550088  0.00945294  0.65823454     0.14100
C2935       C  0.55299354  0.02176139  0.66130945    -0.23500
H2936       H  0.54206349  0.96951550  0.65880617     0.15400
H2937       H  0.45878849  0.02341161  0.65292337     0.15500
C2938       C  0.44780841  0.97113575  0.65081719    -0.23500
H2939       H  0.56908661  0.00639592  0.66240131     0.05700
H2940       H  0.55381490  0.03356816  0.68010424     0.08900
H2941       H  0.55750014  0.03474844  0.64384953     0.08900
H2942       H  0.44344004  0.95903378  0.66890789     0.08900
H2943       H  0.44678820  0.95847478  0.63259303     0.08900
H2944       H  0.43177386  0.98651022  0.64914646     0.05700
C2945       C  0.38581018  0.09570158  0.75029507    -0.20100
C2946       C  0.39401084  0.08188274  0.77308343    -0.06700
C2947       C  0.41955041  0.08655699  0.78439714     0.14200
C2948       C  0.43815137  0.10172762  0.77007475    -0.20200
C2949       C  0.43151441  0.11165658  0.74471668    -0.06700
C2950       C  0.40436097  0.11100630  0.73591998     0.14100
C2951       C  0.39499455  0.12532003  0.71099113    -0.23500
H2952       H  0.36576383  0.09246803  0.74238288     0.15400
H2953       H  0.45865096  0.10317272  0.77732799     0.15500
C2954       C  0.42782858  0.07367023  0.81044084    -0.23500
H2955       H  0.37270527  0.12522295  0.70941444     0.05700
H2956       H  0.40284289  0.11549132  0.69270563     0.08900
H2957       H  0.40167688  0.14649138  0.71158765     0.08900
H2958       H  0.42733938  0.05159486  0.80852564     0.08900
H2959       H  0.41379151  0.07988209  0.82657720     0.08900
H2960       H  0.44851738  0.07954521  0.81642680     0.05700
C2961       C  0.37842184  0.92580407  0.72606720    -0.20100
C2962       C  0.37937662  0.92390781  0.75392823    -0.06700
C2963       C  0.39447964  0.90350045  0.76627644     0.14200
C2964       C  0.41123899  0.88764952  0.75043934    -0.20200
C2965       C  0.41344229  0.89218182  0.72278756    -0.06700
C2966       C  0.39510234  0.90995799  0.71009537     0.14100
C2967       C  0.39395594  0.91395913  0.68015568    -0.23500
H2968       H  0.36620596  0.94129549  0.71694689     0.15400
H2969       H  0.42435097  0.87322712  0.76004406     0.15500
C2970       C  0.39504563  0.90013195  0.79628542    -0.23500
H2971       H  0.37789614  0.92825129  0.67428528     0.05700
H2972       H  0.38955036  0.89463105  0.67015367     0.08900
H2973       H  0.41325616  0.92217567  0.67270424     0.08900
H2974       H  0.37448706  0.89563050  0.80370205     0.08900
H2975       H  0.40249682  0.91872593  0.80590392     0.08900
H2976       H  0.40845235  0.88348008  0.80248944     0.05700
C2977       C  0.35032899  0.05393796  0.91845173    -0.20100
C2978       C  0.34111816  0.06193909  0.89307970    -0.06700
C2979       C  0.32995833  0.08778169  0.88971974     0.14200
C2980       C  0.33031895  0.10556839  0.91134541    -0.20200
C2981       C  0.34187817  0.09822123  0.93577830    -0.06700
C2982       C  0.35097191  0.07191302  0.93987358     0.14100
C2983       C  0.36190632  0.06310159  0.96660055    -0.23500
H2984       H  0.35827509  0.03393015  0.92117249     0.15400
H2985       H  0.32346921  0.12597388  0.90857914     0.15500
C2986       C  0.31959333  0.09755386  0.86308240    -0.23500
H2987       H  0.36766732  0.04164365  0.96646703     0.05700
H2988       H  0.34634012  0.06602673  0.98228328     0.08900
H2989       H  0.38001139  0.07497472  0.97182741     0.08900
H2990       H  0.30215572  0.08524800  0.85672762     0.08900
H2991       H  0.33577560  0.09636289  0.84779299     0.08900
H2992       H  0.31274009  0.11866932  0.86409581     0.05700
C2993       C  0.35942599  0.93698256  0.91336981    -0.20100
C2994       C  0.34182936  0.93503925  0.89140746    -0.06700
C2995       C  0.32194416  0.91460131  0.89150943     0.14200
C2996       C  0.32220514  0.89535186  0.91206636    -0.20200
C2997       C  0.34198527  0.89581680  0.93201281    -0.06700
C2998       C  0.36011811  0.91747840  0.93328978     0.14100
C2999       C  0.38057717  0.92006430  0.95543350    -0.23500
H3000       H  0.37388655  0.95315586  0.91439678     0.15400
H3001       H  0.30801839  0.87890196  0.91160183     0.15500
C3002       C  0.30096086  0.91216525  0.86988549    -0.23500
H3003       H  0.39135693  0.93950280  0.95465738     0.05700
H3004       H  0.39590738  0.90403777  0.95392088     0.08900
H3005       H  0.37026397  0.91870531  0.97498628     0.08900
H3006       H  0.31074224  0.90829216  0.85028903     0.08900
H3007       H  0.28887090  0.93080586  0.86889596     0.08900
H3008       H  0.28687022  0.89537707  0.87379882     0.05700
C3009       C  0.26157854  0.98018497  0.75121060    -0.20100
C3010       C  0.26899710  0.00401095  0.76427891    -0.06700
C3011       C  0.25442200  0.02759552  0.75756705     0.14200
C3012       C  0.23408626  0.02676634  0.73766258    -0.20200
C3013       C  0.22746634  0.00312567  0.72377970    -0.06700
C3014       C  0.24145844  0.97933314  0.73121905     0.14100
C3015       C  0.23628170  0.95280263  0.71777466    -0.23500
H3016       H  0.27231188  0.96195526  0.75602477     0.15400
H3017       H  0.22357712  0.04504302  0.73255487     0.15500
C3018       C  0.25992222  0.05390331  0.77119958    -0.23500
H3019       H  0.24929336  0.93667000  0.72589477     0.05700
H3020       H  0.24057246  0.95433874  0.69600784     0.08900
H3021       H  0.21510206  0.94660094  0.72108150     0.08900
H3022       H  0.28048841  0.06094376  0.76622467     0.08900
H3023       H  0.25777549  0.05159217  0.79320915     0.08900
H3024       H  0.24566034  0.06970197  0.76466209     0.05700
C3025       C  0.62310843  0.07141589  0.72895322    -0.20100
C3026       C  0.62270441  0.07486185  0.75665159    -0.06700
C3027       C  0.60918684  0.09684246  0.76804035     0.14200
C3028       C  0.59219235  0.11199992  0.75174851    -0.20200
C3029       C  0.58861898  0.10530687  0.72467484    -0.06700
C3030       C  0.60624777  0.08648052  0.71254195     0.14100
C3031       C  0.60607345  0.08016272  0.68297949    -0.23500
H3032       H  0.63447367  0.05492457  0.72052219     0.15400
H3033       H  0.57982055  0.12742870  0.76073346     0.15500
C3034       C  0.61050730  0.10266690  0.79763002    -0.23500
H3035       H  0.62188602  0.06543602  0.67753532     0.05700
H3036       H  0.61001424  0.09863631  0.67129296     0.08900
H3037       H  0.58647970  0.07136335  0.67708903     0.08900
H3038       H  0.63168890  0.10652584  0.80352056     0.08900
H3039       H  0.60261481  0.08541466  0.80921000     0.08900
H3040       H  0.59843190  0.12055374  0.80304451     0.05700
C3041       C  0.56418548  0.89394465  0.76613638    -0.20100
C3042       C  0.57070468  0.88593926  0.74000574    -0.06700
C3043       C  0.59749220  0.88933579  0.73054497     0.14200
C3044       C  0.61518239  0.90525092  0.74531149    -0.20200
C3045       C  0.60684837  0.91668535  0.76932358    -0.06700
C3046       C  0.58215923  0.90934709  0.78101134     0.14100
C3047       C  0.57417510  0.91926741  0.80841400    -0.23500
H3048       H  0.54421000  0.89033258  0.77404185     0.15400
H3049       H  0.63469608  0.91047703  0.73713591     0.15500
C3050       C  0.60747873  0.87730447  0.70466088    -0.23500
H3051       H  0.55393454  0.91195888  0.81435213     0.05700
H3052       H  0.57381917  0.94143131  0.80876757     0.08900
H3053       H  0.58895598  0.91208220  0.82344270     0.08900
H3054       H  0.59877936  0.88785252  0.68716614     0.08900
H3055       H  0.60226798  0.85573059  0.70392526     0.08900
H3056       H  0.62969400  0.87896794  0.70287889     0.05700
C3057       C  0.64765236  0.93803239  0.91798349    -0.20100
C3058       C  0.65423924  0.93046843  0.89183321    -0.06700
C3059       C  0.66194651  0.90374391  0.88654264     0.14200
C3060       C  0.66141014  0.88499454  0.90744284    -0.20200
C3061       C  0.65301131  0.89220742  0.93328943    -0.06700
C3062       C  0.64700018  0.91932151  0.93877016     0.14100
C3063       C  0.64074180  0.92895682  0.96654110    -0.23500
H3064       H  0.64233848  0.95867524  0.92203423     0.15400
H3065       H  0.66615462  0.86426424  0.90321295     0.15500
C3066       C  0.66905107  0.89441960  0.85871484    -0.23500
H3067       H  0.63856119  0.95104512  0.96742619     0.05700
H3068       H  0.65767459  0.92327275  0.97969286     0.08900
H3069       H  0.62165659  0.92015362  0.97387861     0.08900
H3070       H  0.68733977  0.90496129  0.85157886     0.08900
H3071       H  0.65206146  0.89844637  0.84485451     0.08900
H3072       H  0.67330697  0.87262598  0.85814097     0.05700
C3073       C  0.66651654  0.08814594  0.88619536    -0.20100
C3074       C  0.65463652  0.06352634  0.89292801    -0.06700
C3075       C  0.64632915  0.05901737  0.91963368     0.14200
C3076       C  0.64784689  0.08000147  0.93810497    -0.20200
C3077       C  0.65741410  0.10541811  0.93076322    -0.06700
C3078       C  0.66802478  0.10919717  0.90473872     0.14100
C3079       C  0.67970833  0.13555351  0.89583347    -0.23500
H3080       H  0.67344263  0.09143208  0.86587739     0.15400
H3081       H  0.64063474  0.07673792  0.95833473     0.15500
C3082       C  0.63604731  0.03221132  0.92902988    -0.23500
H3083       H  0.68641569  0.13493890  0.87462550     0.05700
H3084       H  0.69751337  0.14053837  0.90827481     0.08900
H3085       H  0.66436231  0.15157630  0.89768234     0.08900
H3086       H  0.65087566  0.01636876  0.92403913     0.08900
H3087       H  0.61642334  0.02761173  0.91955249     0.08900
H3088       H  0.63286154  0.03183378  0.95104314     0.05700
C3089       C  0.73441002  0.97010908  0.75286919    -0.20100
C3090       C  0.72761188  0.99468441  0.76503201    -0.06700
C3091       C  0.74137760  0.01802161  0.75586806     0.14200
C3092       C  0.76031388  0.01609186  0.73473528    -0.20200
C3093       C  0.76561530  0.99177157  0.72171190    -0.06700
C3094       C  0.75279044  0.96843366  0.73134882     0.14100
C3095       C  0.75854715  0.94154645  0.71900534    -0.23500
H3096       H  0.72453563  0.95199081  0.75954277     0.15400
H3097       H  0.77001602  0.03403801  0.72732392     0.15500
C3098       C  0.73591464  0.04532144  0.76744742    -0.23500
H3099       H  0.74783781  0.92519043  0.72962324     0.05700
H3100       H  0.78045918  0.93735103  0.71999503     0.08900
H3101       H  0.75190894  0.94126620  0.69780905     0.08900
H3102       H  0.73990384  0.04519720  0.78931300     0.08900
H3103       H  0.71474531  0.05119384  0.76352024     0.08900
H3104       H  0.74896208  0.06090108  0.75835040     0.05700
C3105       C  0.51380196  0.00376388  0.84845909    -0.20100
C3106       C  0.52823603  0.99658010  0.82516262    -0.06700
C3107       C  0.51268533  0.98834572  0.80258064     0.14200
C3108       C  0.48419691  0.98824822  0.80377334    -0.20200
C3109       C  0.46966405  0.99607304  0.82672356    -0.06700
C3110       C  0.48509493  0.00379039  0.84951467     0.14100
C3111       C  0.47161157  0.01271484  0.87497678    -0.23500
H3112       H  0.52507023  0.00994482  0.86595253     0.15400
H3113       H  0.47308505  0.98200251  0.78620251     0.15500
C3114       C  0.52563982  0.97904268  0.77686796    -0.23500
H3115       H  0.48647609  0.01854418  0.89050785     0.05700
H3116       H  0.45927472  0.99616979  0.88326380     0.08900
H3117       H  0.45866066  0.03034152  0.87090783     0.08900
H3118       H  0.53952894  0.96217814  0.78095646     0.08900
H3119       H  0.53667599  0.99578133  0.76728591     0.08900
H3120       H  0.51056322  0.97187042  0.76211852     0.05700
C3121       C  0.83060237  0.56563392  0.58543796    -0.20100
C3122       C  0.84198121  0.57145460  0.61042699    -0.06700
C3123       C  0.85153023  0.59741004  0.61589254     0.14200
C3124       C  0.85041324  0.61685636  0.59578619    -0.20200
C3125       C  0.84000894  0.61091863  0.57035851    -0.06700
C3126       C  0.82938115  0.58518495  0.56524514     0.14100
C3127       C  0.81825773  0.57781831  0.53817783    -0.23500
H3128       H  0.82347090  0.54554077  0.58147731     0.15400
H3129       H  0.85865702  0.63656837  0.59958285    -0.22900
C3130       C  0.86402751  0.60422838  0.64254461    -0.23500
H3131       H  0.81167676  0.55660877  0.53746973     0.05700
H3132       H  0.83388985  0.58073434  0.52257789     0.08900
H3133       H  0.80057117  0.59053462  0.53352583     0.08900
H3134       H  0.88181982  0.59129363  0.64614948     0.08900
H3135       H  0.84914221  0.60103041  0.65880737     0.08900
H3136       H  0.87074309  0.62539425  0.64335920     0.05700
C3137       C  0.85308586  0.44219091  0.57809692    -0.20100
C3138       C  0.84123420  0.43633984  0.60293099    -0.06700
C3139       C  0.82706853  0.41190140  0.60602264     0.14200
C3140       C  0.82735341  0.39322184  0.58507187    -0.20200
C3141       C  0.84161492  0.39802859  0.56127848    -0.06700
C3142       C  0.85355865  0.42348607  0.55726643     0.14100
C3143       C  0.86713595  0.43132637  0.53136901    -0.23500
H3144       H  0.86309285  0.46123879  0.57526700     0.15400
H3145       H  0.81774930  0.37400071  0.58805360     0.15500
C3146       C  0.81277379  0.40447365  0.63161549    -0.23500
H3147       H  0.87249932  0.45288509  0.53104995     0.05700
H3148       H  0.85340381  0.42754923  0.51426361     0.08900
H3149       H  0.88614717  0.42002827  0.52871173     0.08900
H3150       H  0.79656066  0.41914558  0.63582370     0.08900
H3151       H  0.82729567  0.40396348  0.64848954     0.08900
H3152       H  0.80323760  0.38443017  0.63034238     0.05700
C3153       C  0.75275312  0.51560816  0.73636181    -0.20100
C3154       C  0.76976412  0.49322421  0.73282898    -0.06700
C3155       C  0.76557608  0.47080132  0.74996252     0.14200
C3156       C  0.74635177  0.47222785  0.77075056    -0.20200
C3157       C  0.73046494  0.49503763  0.77499788    -0.06700
C3158       C  0.73320418  0.51670484  0.75700729     0.14100
C3159       C  0.71652338  0.54158913  0.76042962    -0.23500
H3160       H  0.75529385  0.53280002  0.72340782     0.15400
H3161       H  0.74428490  0.45558435  0.78451051     0.15500
C3162       C  0.78191410  0.44550789  0.74754192    -0.23500
H3163       H  0.72139963  0.55688117  0.74504618     0.05700
H3164       H  0.72028082  0.55045282  0.78046130     0.08900
H3165       H  0.69486135  0.53653870  0.75855975     0.08900
H3166       H  0.80355612  0.44993150  0.75074628     0.08900
H3167       H  0.77883921  0.43647800  0.72747336     0.08900
H3168       H  0.77590883  0.43031786  0.76263195     0.05700
C3169       C  0.14502570  0.54822424  0.57120027    -0.20100
C3170       C  0.16217279  0.55131798  0.59322444    -0.06700
C3171       C  0.18140005  0.57210895  0.59320319     0.14200
C3172       C  0.18056159  0.59140265  0.57272080    -0.20200
C3173       C  0.16078066  0.59021526  0.55270316    -0.06700
C3174       C  0.14415724  0.56735746  0.55081100     0.14100
C3175       C  0.12495446  0.56334609  0.52775712    -0.23500
H3176       H  0.13086936  0.53172844  0.57094968     0.15400
H3177       H  0.19368111  0.60867879  0.57375724     0.15500
C3178       C  0.20122027  0.57521434  0.61577352    -0.23500
H3179       H  0.11495340  0.54351140  0.52874388     0.05700
H3180       H  0.13613505  0.56442063  0.50855736     0.08900
H3181       H  0.10889157  0.57870508  0.52794273     0.08900
H3182       H  0.21414883  0.55715487  0.61697479     0.08900
H3183       H  0.19034549  0.57785365  0.63501229     0.08900
H3184       H  0.21448814  0.59282988  0.61277558     0.05700
C3185       C  0.14041539  0.39744305  0.62212257    -0.20100
C3186       C  0.15217735  0.42193915  0.61517621    -0.06700
C3187       C  0.16587830  0.42446555  0.59050088     0.14200
C3188       C  0.16617060  0.40268857  0.57273970    -0.20200
C3189       C  0.15283784  0.37875927  0.57904185    -0.06700
C3190       C  0.14062539  0.37577266  0.60445390     0.14100
C3191       C  0.12801408  0.34977381  0.61325408    -0.23500
H3192       H  0.13042850  0.39546800  0.64133804     0.15400
H3193       H  0.17549174  0.40487893  0.55323146     0.15500
C3194       C  0.17870806  0.45044937  0.58212335    -0.23500
H3195       H  0.12140125  0.35054314  0.63448819     0.05700
H3196       H  0.14292201  0.33336272  0.61132336     0.08900
H3197       H  0.10999774  0.34520452  0.60101271     0.08900
H3198       H  0.19515182  0.45568981  0.59618887     0.08900
H3199       H  0.16342001  0.46664199  0.58206227     0.08900
H3200       H  0.18749955  0.44915106  0.56171431     0.05700
C3201       C  0.23079202  0.52509455  0.74670028    -0.20100
C3202       C  0.22673642  0.50361755  0.72901052    -0.06700
C3203       C  0.24449814  0.48152135  0.73084224     0.14200
C3204       C  0.26492129  0.48113008  0.75073551    -0.20200
C3205       C  0.26843831  0.50231030  0.76915044    -0.06700
C3206       C  0.25114389  0.52490188  0.76645759     0.14100
C3207       C  0.25281622  0.54861354  0.78504721    -0.23500
H3208       H  0.21720921  0.54201491  0.74558003     0.15400
H3209       H  0.27776995  0.46371186  0.75235756     0.15500
C3210       C  0.24105498  0.45761519  0.71286549    -0.23500
H3211       H  0.23735698  0.56395535  0.78037667     0.05700
H3212       H  0.27277295  0.55836598  0.78308447     0.08900
H3213       H  0.24949286  0.54209277  0.80604307     0.08900
H3214       H  0.24369898  0.46370547  0.69165721     0.08900
H3215       H  0.22066506  0.44897024  0.71561984     0.08900
H3216       H  0.25604594  0.44176506  0.71732738     0.05700
C3217       C  0.01172826  0.50322660  0.64051762    -0.20100
C3218       C  0.02719996  0.50337038  0.66409443    -0.06700
C3219       C  0.01334876  0.50481866  0.68882718     0.14200
C3220       C  0.98484026  0.50546099  0.68944961    -0.20200
C3221       C  0.96896570  0.50469777  0.66592876    -0.06700
C3222       C  0.98307671  0.50374438  0.64103239     0.14100
C3223       C  0.96831640  0.50314554  0.61473148    -0.23500
H3224       H  0.02216138  0.50229358  0.62148951     0.15400
H3225       H  0.97492342  0.50635793  0.70874443     0.15500
C3226       C  0.02875638  0.50603192  0.71478802    -0.23500
H3227       H  0.98236864  0.50280985  0.59744103     0.05700
H3228       H  0.95555042  0.52125244  0.61277119     0.08900
H3229       H  0.95567566  0.48489420  0.61352603     0.08900
H3230       H  0.04210749  0.52384051  0.71480134     0.08900
H3231       H  0.04116876  0.48773260  0.71713892     0.08900
H3232       H  0.01513691  0.50749961  0.73236882     0.05700
C3233       C  0.10572370  0.44259963  0.77414854    -0.20100
C3234       C  0.11312047  0.43364668  0.74866620    -0.06700
C3235       C  0.10945686  0.40633393  0.74183576     0.14200
C3236       C  0.09378761  0.39035235  0.75858048    -0.20200
C3237       C  0.08221695  0.40097273  0.78172940    -0.06700
C3238       C  0.08996528  0.42670902  0.79082866     0.14100
C3239       C  0.07948312  0.43872424  0.81652509    -0.23500
H3240       H  0.10958924  0.46327334  0.77987350     0.15400
H3241       H  0.08867658  0.37006445  0.75243327     0.15500
C3242       C  0.12095531  0.39414782  0.71665957    -0.23500
H3243       H  0.08744752  0.45920323  0.81993739     0.05700
H3244       H  0.08574023  0.42623998  0.83380603     0.08900
H3245       H  0.05722873  0.44020275  0.81578434     0.08900
H3246       H  0.14266635  0.39906834  0.71503482     0.08900
H3247       H  0.11009430  0.40137180  0.69868540     0.08900
H3248       H  0.11907113  0.37200562  0.71682298     0.05700
C3249       C  0.93903957  0.39518707  0.72489172    -0.20100
C3250       C  0.93008779  0.38182911  0.74785806    -0.06700
C3251       C  0.90226020  0.38215300  0.75436888     0.14200
C3252       C  0.88549316  0.40048024  0.74132674    -0.20200
C3253       C  0.89617593  0.41768383  0.72208309    -0.06700
C3254       C  0.92239883  0.41360646  0.71213026     0.14100
C3255       C  0.93340547  0.42994262  0.68922288    -0.23500
H3256       H  0.95999552  0.39399068  0.71900958     0.15400
H3257       H  0.86479122  0.40293114  0.74770742     0.15500
C3258       C  0.89032348  0.36420642  0.77557898    -0.23500
H3259       H  0.95406484  0.42360408  0.68360061     0.05700
H3260       H  0.93427211  0.45133279  0.69491751     0.08900
H3261       H  0.92027129  0.42757493  0.67140799     0.08900
H3262       H  0.89664750  0.37043768  0.79590412     0.08900
H3263       H  0.89653266  0.34320486  0.77189438     0.08900
H3264       H  0.86798971  0.36490080  0.77523006     0.05700
C3265       C  0.91536065  0.36477599  0.93402864    -0.20100
C3266       C  0.89224785  0.34864326  0.93292511    -0.06700
C3267       C  0.88843130  0.33148161  0.91053717     0.14200
C3268       C  0.90742980  0.33168071  0.88974151    -0.20200
C3269       C  0.92939206  0.34908714  0.89041345    -0.06700
C3270       C  0.93364954  0.36559000  0.91286957     0.14100
C3271       C  0.95746197  0.38418513  0.91454211    -0.23500
H3272       H  0.91875474  0.37761838  0.95117273     0.15400
H3273       H  0.90448686  0.31915204  0.87227504     0.15500
C3274       C  0.86402989  0.31382596  0.90754222    -0.23500
H3275       H  0.95878538  0.39421497  0.93433661     0.05700
H3276       H  0.95589971  0.39996826  0.89901050     0.08900
H3277       H  0.97619317  0.37265527  0.91134833     0.08900
H3278       H  0.84547533  0.32619105  0.90781645     0.08900
H3279       H  0.86345023  0.29889132  0.92396942     0.08900
H3280       H  0.86426708  0.30261384  0.88834880     0.05700
C3281       C  0.07993809  0.32244465  0.88840852    -0.20100
C3282       C  0.05539023  0.33314626  0.89703547    -0.06700
C3283       C  0.05204308  0.34041901  0.92407592     0.14200
C3284       C  0.07412688  0.33918391  0.94137304    -0.20200
C3285       C  0.09962100  0.33156491  0.93202152    -0.06700
C3286       C  0.10233271  0.32181129  0.90549620     0.14100
C3287       C  0.12903786  0.31286732  0.89429418    -0.23500
H3288       H  0.08224792  0.31685015  0.86755527     0.15400
H3289       H  0.07189445  0.34599229  0.96186463     0.15500
C3290       C  0.02555229  0.35066849  0.93439363    -0.23500
H3291       H  0.12741252  0.30680319  0.87296232     0.05700
H3292       H  0.13654027  0.29535228  0.90571533     0.08900
H3293       H  0.14384781  0.32944771  0.89548493     0.08900
H3294       H  0.00946011  0.33586569  0.93015353     0.08900
H3295       H  0.02074788  0.36994065  0.92454938     0.08900
H3296       H  0.02607150  0.35418670  0.95634514     0.05700
C3297       C  0.98153203  0.25553677  0.76368480    -0.20100
C3298       C  0.00413928  0.27238834  0.76634862    -0.06700
C3299       C  0.02693349  0.26686509  0.75012073     0.14200
C3300       C  0.02589892  0.24633341  0.73076934    -0.20200
C3301       C  0.00275358  0.23068990  0.72671610    -0.06700
C3302       C  0.98048911  0.23498137  0.74400870     0.14100
C3303       C  0.95498366  0.21913840  0.74063959    -0.23500
H3304       H  0.96397283  0.25949823  0.77591528     0.15400
H3305       H  0.04313802  0.24312092  0.71786603     0.15500
C3306       C  0.05265798  0.28259782  0.75300515    -0.23500
H3307       H  0.93929841  0.22537862  0.75519727     0.05700
H3308       H  0.95916383  0.19758049  0.74387002     0.08900
H3309       H  0.94686337  0.22211182  0.72014391     0.08900
H3310       H  0.05952165  0.28199765  0.77414849     0.08900
H3311       H  0.04957087  0.30363301  0.74672044     0.08900
H3312       H  0.06901544  0.27427986  0.74034536     0.05700
C3313       C  0.10886480  0.59049983  0.74820767    -0.20100
C3314       C  0.10233954  0.58534881  0.72136294    -0.06700
C3315       C  0.08054986  0.59917040  0.70925505     0.14200
C3316       C  0.06396874  0.61495461  0.72530045    -0.20200
C3317       C  0.06852194  0.61700718  0.75278360    -0.06700
C3318       C  0.09200614  0.60609594  0.76423776     0.14100
C3319       C  0.09800810  0.60870472  0.79372623    -0.23500
H3320       H  0.12592051  0.58044703  0.75724127     0.15400
H3321       H  0.04599703  0.62389365  0.71684303     0.15500
C3322       C  0.07286481  0.59568495  0.68022588    -0.23500
H3323       H  0.11690188  0.59824356  0.79930913     0.05700
H3324       H  0.08138101  0.59988492  0.80567433     0.08900
H3325       H  0.10033518  0.63012772  0.79902676     0.08900
H3326       H  0.06739457  0.57454156  0.67627339     0.08900
H3327       H  0.08984017  0.60183838  0.66716101     0.08900
H3328       H  0.05522287  0.60814191  0.67467805     0.05700
C3329       C  0.88966114  0.59686621  0.72626066    -0.20100
C3330       C  0.87797195  0.57645959  0.74160767    -0.06700
C3331       C  0.87917287  0.57728649  0.76973235     0.14200
C3332       C  0.89500181  0.59691465  0.78184782    -0.20200
C3333       C  0.91033025  0.61442073  0.76613203    -0.06700
C3334       C  0.90646979  0.61567807  0.73827994     0.14100
C3335       C  0.92131870  0.63571265  0.72124260    -0.23500
H3336       H  0.88808140  0.59630827  0.70460730     0.15400
H3337       H  0.89797409  0.59646568  0.80335556     0.15500
C3338       C  0.86489398  0.55685777  0.78674572    -0.23500
H3339       H  0.91563244  0.63403219  0.69980004     0.05700
H3340       H  0.94334961  0.63250648  0.72278536     0.08900
H3341       H  0.91642552  0.65625715  0.72810059     0.08900
H3342       H  0.87299975  0.53658665  0.78274559     0.08900
H3343       H  0.84304859  0.55716474  0.78214349     0.08900
H3344       H  0.86744323  0.56104240  0.80843816     0.05700
C3345       C  0.06314890  0.63991959  0.91151584    -0.20100
C3346       C  0.06674850  0.65277717  0.88671358    -0.06700
C3347       C  0.09128967  0.66646873  0.88166337     0.14200
C3348       C  0.11193289  0.66541603  0.90086255    -0.20200
C3349       C  0.10863271  0.65098555  0.92461937    -0.06700
C3350       C  0.08383196  0.63871277  0.93040177     0.14100
C3351       C  0.07934609  0.62396007  0.95638459    -0.23500
H3352       H  0.04428852  0.62995243  0.91588440     0.15400
H3353       H  0.13113560  0.67488375  0.89685007     0.15500
C3354       C  0.09655606  0.68113023  0.85581402    -0.23500
H3355       H  0.05858583  0.61588528  0.95787290     0.05700
H3356       H  0.08261613  0.63774067  0.97350799     0.08900
H3357       H  0.09356128  0.60691723  0.95796122     0.08900
H3358       H  0.08194943  0.69775768  0.85350818     0.08900
H3359       H  0.09484903  0.66713997  0.83864520     0.08900
H3360       H  0.11705156  0.68995887  0.85529324     0.05700
C3361       C  0.94210848  0.64784507  0.92201448    -0.20100
C3362       C  0.93337384  0.65610159  0.89659171    -0.06700
C3363       C  0.90708755  0.66663068  0.89362116     0.14200
C3364       C  0.88965559  0.66642568  0.91563770    -0.20200
C3365       C  0.89762617  0.65576777  0.94037157    -0.06700
C3366       C  0.92460894  0.64765283  0.94400312     0.14100
C3367       C  0.93522134  0.63914920  0.97092699    -0.23500
H3368       H  0.96253472  0.64066406  0.92449511     0.15400
H3369       H  0.86906433  0.67305928  0.91299657     0.15500
C3370       C  0.89649438  0.67651145  0.86709873    -0.23500
H3371       H  0.95726309  0.63553577  0.97040623     0.05700
H3372       H  0.92553025  0.62029160  0.97747585     0.08900
H3373       H  0.93130431  0.65521121  0.98576075     0.08900
H3374       H  0.89758334  0.66029600  0.85195694     0.08900
H3375       H  0.90842403  0.69399584  0.86029307     0.08900
H3376       H  0.87517463  0.68301661  0.86849709     0.05700
C3377       C  0.01305650  0.74378311  0.76147788    -0.20100
C3378       C  0.98958913  0.72872009  0.76624951    -0.06700
C3379       C  0.96628736  0.73532373  0.75101609     0.14200
C3380       C  0.96757305  0.75550218  0.73115877    -0.20200
C3381       C  0.99144158  0.76959174  0.72539298    -0.06700
C3382       C  0.01436386  0.76391628  0.74156670     0.14100
C3383       C  0.04054082  0.77877491  0.73820672    -0.23500
H3384       H  0.03091697  0.73936607  0.77309067     0.15400
H3385       H  0.94980313  0.75958480  0.71929710     0.15500
C3386       C  0.94003044  0.72063565  0.75456651    -0.23500
H3387       H  0.05553465  0.77296169  0.75363012     0.05700
H3388       H  0.03703130  0.80061217  0.74015883     0.08900
H3389       H  0.04953308  0.77419502  0.71839906     0.08900
H3390       H  0.93247808  0.72344564  0.77529291     0.08900
H3391       H  0.94287509  0.69902614  0.75034310     0.08900
H3392       H  0.92423402  0.72811220  0.74074015     0.05700
C3393       C  0.98648692  0.51280417  0.80714575    -0.20100
C3394       C  0.99405363  0.52841467  0.82950070    -0.06700
C3395       C  0.00183423  0.51418956  0.85304436     0.14200
C3396       C  0.00158737  0.48567926  0.85349305    -0.20200
C3397       C  0.99331163  0.47028267  0.83132961    -0.06700
C3398       C  0.98596350  0.48441554  0.80771088     0.14100
C3399       C  0.97850071  0.46969423  0.78242747    -0.23500
H3400       H  0.98077643  0.52290599  0.78881366     0.15400
H3401       H  0.00762049  0.47528233  0.87155870     0.15500
C3402       C  0.01089130  0.52872816  0.87784432    -0.23500
H3403       H  0.97497474  0.48359104  0.76543021     0.05700
H3404       H  0.95971407  0.45813846  0.78554150     0.08900
H3405       H  0.99503889  0.45593287  0.77662287     0.08900
H3406       H  0.99420265  0.54116881  0.88576148     0.08900
H3407       H  0.02849288  0.54154962  0.87310506     0.08900
H3408       H  0.01698846  0.51467449  0.89395886     0.05700
loop_ 
_geom_bond_atom_site_label_1 
_geom_bond_atom_site_label_2 
_geom_bond_distance 
_geom_bond_site_symmetry_2 
_ccdc_geom_bond_type 
Zn1           O5   1.945   1_455  S
Zn1           O6   1.975       .  S
Zn1          O10   2.016       .  S
Zn1          O17   2.069       .  S
Zn2           O5   1.920       .  S
Zn2           O7   2.081       .  S
Zn2           O9   1.990   1_655  S
Zn2          O13   1.992       .  S
Zn3           O5   1.939       .  S
Zn3           O8   2.007   1_655  S
Zn3          O11   2.111       .  S
Zn3          O14   2.018       .  S
Zn4           O5   1.936       .  S
Zn4          O12   2.000       .  S
Zn4          O15   1.977       .  S
Zn4          O16   2.055       .  S
O6           C18   1.269       .  A
O7           C19   1.279       .  A
O8           C20   1.278       .  A
O9           C18   1.275       .  A
O10          C20   1.277       .  A
O11          C19   1.282       .  A
O12          C21   1.275       .  A
O13          C22   1.274       .  A
O14          C21   1.279       .  A
O15          C22   1.269       .  A
O16          C23   1.275       .  A
O17          C23   1.278   1_455  A
C18        C3317   1.455       .  S
C19        C3394   1.535       .  S
C20        C3346   1.485       .  S
C21        C3362   1.478       .  S
C22        C3333   1.449       .  S
C23        C3378   1.519       .  S
Zn24         O28   1.887       .  S
Zn24         O29   1.972       .  S
Zn24         O33   1.945       .  S
Zn24         O40   2.074       .  S
Zn25         O28   1.942       .  S
Zn25         O30   2.119       .  S
Zn25         O32   2.033       .  S
Zn25         O36   2.037   1_655  S
Zn26         O28   1.902   1_455  S
Zn26         O31   2.021   1_455  S
Zn26         O34   2.029       .  S
Zn26         O37   2.008       .  S
Zn27         O28   1.932   1_455  S
Zn27         O35   1.959       .  S
Zn27         O38   2.002       .  S
Zn27         O39   2.112       .  S
O29          C41   1.274       .  A
O30          C42   1.284   1_655  A
O31          C43   1.278       .  A
O32          C41   1.279       .  A
O33          C43   1.267       .  A
O34          C42   1.274       .  A
O35          C44   1.268       .  A
O36          C45   1.279       .  A
O37          C44   1.279       .  A
O38          C45   1.277       .  A
O39          C46   1.280   1_455  A
O40          C46   1.275       .  A
C41        C3269   1.462       .  S
C42        C3298   1.512       .  S
C43        C3250   1.468       .  S
C44        C3237   1.460       .  S
C45        C3282   1.467       .  S
C46        C3397   1.526       .  S
Zn47         O51   1.923       .  S
Zn47         O52   1.999       .  S
Zn47         O56   2.021       .  S
Zn47         O63   2.001       .  S
Zn48         O51   1.926       .  S
Zn48         O53   1.991       .  S
Zn48         O55   1.978       .  S
Zn48         O59   2.095       .  S
Zn49         O51   1.959       .  S
Zn49         O54   2.117       .  S
Zn49         O57   2.047       .  S
Zn49         O60   2.033       .  S
Zn50         O51   1.923       .  S
Zn50         O58   1.992       .  S
Zn50         O61   2.076       .  S
Zn50         O62   1.949       .  S
O52          C64   1.276       .  A
O53          C65   1.277       .  A
O54          C66   1.284       .  A
O55          C64   1.269       .  A
O56          C66   1.273       .  A
O57          C65   1.280       .  A
O58          C67   1.276       .  A
O59          C68   1.278       .  A
O60          C67   1.278       .  A
O61          C68   1.276       .  A
O62          C69   1.266       .  A
O63          C69   1.274       .  A
C64        C3314   1.470       .  S
C65        C3170   1.472       .  S
C66        C3202   1.510       .  S
C67        C3186   1.473       .  S
C68        C3218   1.514       .  S
C69        C3234   1.467       .  S
Zn70         O74   1.939       .  S
Zn70         O75   2.021       .  S
Zn70         O79   2.018       .  S
Zn70         O86   2.111       .  S
Zn71         O74   1.938       .  S
Zn71         O76   2.069       .  S
Zn71         O78   2.013       .  S
Zn71         O82   1.967       .  S
Zn72         O74   1.932       .  S
Zn72         O77   2.002       .  S
Zn72         O80   2.055       .  S
Zn72         O83   1.982       .  S
Zn73         O74   1.925       .  S
Zn73         O81   1.992       .  S
Zn73         O84   2.006       .  S
Zn73         O85   2.063       .  S
O75          C87   1.277       .  A
O76          C88   1.278       .  A
O77          C89   1.275       .  A
O78          C87   1.276       .  A
O79          C89   1.279       .  A
O80          C88   1.276       .  A
O81          C90   1.275       .  A
O82          C91   1.269       .  A
O83          C90   1.269       .  A
O84          C91   1.276       .  A
O85          C92   1.277       .  A
O86          C92   1.282       .  A
C87        C3122   1.466       .  S
C88        C3154   1.518       .  S
C89        C3138   1.485       .  S
C90        C3253   1.453       .  S
C91        C3330   1.453       .  S
C92        C3221   1.533       .  S
Zn93         O97   1.904       .  S
Zn93         O98   1.991       .  S
Zn93        O102   1.991   1_565  S
Zn93        O109   2.053       .  S
Zn94         O97   1.928       .  S
Zn94         O99   2.059       .  S
Zn94        O101   1.970       .  S
Zn94        O105   1.995       .  S
Zn95         O97   1.935   1_545  S
Zn95        O100   1.973       .  S
Zn95        O103   2.059       .  S
Zn95        O106   2.008       .  S
Zn96         O97   1.935       .  S
Zn96        O104   2.027   1_565  S
Zn96        O107   2.021       .  S
Zn96        O108   2.133       .  S
O98         C110   1.274       .  A
O99         C111   1.278       .  A
O100        C112   1.269       .  A
O101        C110   1.266       .  A
O102        C112   1.276       .  A
O103        C111   1.276   1_545  A
O104        C113   1.279       .  A
O105        C114   1.276       .  A
O106        C113   1.278       .  A
O107        C114   1.280       .  A
O108        C115   1.285       .  A
O109        C115   1.275       .  A
C110       C3045   1.448       .  S
C111       C3090   1.520       .  S
C112       C3026   1.453       .  S
C113       C3074   1.481       .  S
C114       C3058   1.473       .  S
C115       C3106   1.533       .  S
Zn116       O120   1.904       .  S
Zn116       O121   2.067       .  S
Zn116       O125   1.982   1_565  S
Zn116       O132   1.993       .  S
Zn117       O120   1.930       .  S
Zn117       O122   2.003   1_565  S
Zn117       O124   2.114       .  S
Zn117       O128   1.996       .  S
Zn118       O120   1.929   1_545  S
Zn118       O123   1.978       .  S
Zn118       O126   1.999       .  S
Zn118       O129   2.061       .  S
Zn119       O120   1.929       .  S
Zn119       O127   2.070       .  S
Zn119       O130   2.023       .  S
Zn119       O131   1.987       .  S
O121        C133   1.277       .  A
O122        C134   1.277       .  A
O123        C135   1.269       .  A
O124        C133   1.281       .  A
O125        C135   1.274       .  A
O126        C134   1.275       .  A
O127        C136   1.279   1_565  A
O128        C137   1.278       .  A
O129        C136   1.276       .  A
O130        C137   1.277       .  A
O131        C138   1.272       .  A
O132        C138   1.276       .  A
C133       C3109   1.533       .  S
C134       C2978   1.473       .  S
C135       C2946   1.447       .  S
C136       C3010   1.520       .  S
C137       C2994   1.490       .  S
C138       C2962   1.456       .  S
Zn139       O143   1.913       .  S
Zn139       O144   2.080       .  S
Zn139       O148   1.963       .  S
Zn139       O155   1.963       .  S
Zn140       O143   1.927       .  S
Zn140       O145   1.951       .  S
Zn140       O147   2.088       .  S
Zn140       O151   1.988       .  S
Zn141       O143   1.931       .  S
Zn141       O146   2.008       .  S
Zn141       O149   2.009       .  S
Zn141       O152   2.013       .  S
Zn142       O143   1.973       .  S
Zn142       O150   2.112       .  S
Zn142       O153   2.037       .  S
Zn142       O154   2.038       .  S
O144        C156   1.276       .  A
O145        C157   1.268       .  A
O146        C158   1.277       .  A
O147        C156   1.278       .  A
O148        C158   1.266       .  A
O149        C157   1.275       .  A
O150        C159   1.283       .  A
O151        C160   1.275       .  A
O152        C159   1.271       .  A
O153        C160   1.278       .  A
O154        C161   1.278       .  A
O155        C161   1.273       .  A
C156       C2933   1.532       .  S
C157       C2949   1.465       .  S
C158       C3029   1.473       .  S
C159       C2914   1.506       .  S
C160       C2901   1.473       .  S
C161       C2885   1.465       .  S
Zn162       O166   1.973       .  S
Zn162       O167   2.053       .  S
Zn162       O171   2.048       .  S
Zn162       O178   2.144       .  S
Zn163       O166   1.924       .  S
Zn163       O168   2.084       .  S
Zn163       O170   1.985       .  S
Zn163       O174   1.952       .  S
Zn164       O166   1.923       .  S
Zn164       O169   1.985       .  S
Zn164       O172   2.085       .  S
Zn164       O175   1.970       .  S
Zn165       O166   1.921       .  S
Zn165       O173   2.010       .  S
Zn165       O176   2.014       .  S
Zn165       O177   2.016       .  S
O167        C179   1.281       .  A
O168        C180   1.277       .  A
O169        C181   1.275       .  A
O170        C179   1.275       .  A
O171        C181   1.280       .  A
O172        C180   1.276       .  A
O173        C182   1.278       .  A
O174        C183   1.266       .  A
O175        C182   1.268       .  A
O176        C183   1.276       .  A
O177        C184   1.272       .  A
O178        C184   1.286       .  A
C179       C2834   1.471       .  S
C180       C2930   1.533       .  S
C181       C2850   1.469       .  S
C182       C2965   1.475       .  S
C183       C3042   1.472       .  S
C184       C2866   1.520       .  S
Zn185       O189   1.908       .  S
Zn185       O190   1.955       .  S
Zn185       O194   2.090       .  S
Zn185       O201   1.975       .  S
Zn186       O189   1.900   1_554  S
Zn186       O191   2.002       .  S
Zn186       O193   2.005   1_554  S
Zn186       O197   2.026       .  S
Zn187       O189   1.914   1_554  S
Zn187       O192   2.093       .  S
Zn187       O195   1.958       .  S
Zn187       O198   1.990       .  S
Zn188       O189   1.953       .  S
Zn188       O196   2.041   1_556  S
Zn188       O199   2.135       .  S
Zn188       O200   2.050       .  S
O190        C202   1.270       .  A
O191        C203   1.278       .  A
O192        C204   1.277   1_554  A
O193        C202   1.275       .  A
O194        C204   1.277       .  A
O195        C203   1.267       .  A
O196        C205   1.280       .  A
O197        C206   1.274   1_554  A
O198        C205   1.276       .  A
O199        C206   1.286       .  A
O200        C207   1.281       .  A
O201        C207   1.274       .  A
C202       C2770   1.475       .  S
C203       C2754   1.464       .  S
C204       C2818   1.518       .  S
C205       C2786   1.464       .  S
C206       C2805   1.514   1_556  S
C207       C2997   1.470       .  S
Zn208       O212   1.948   1_556  S
Zn208       O213   2.066       .  S
Zn208       O217   2.017       .  S
Zn208       O224   1.972       .  S
Zn209       O212   1.945       .  S
Zn209       O214   1.999       .  S
Zn209       O216   2.058       .  S
Zn209       O220   1.976       .  S
Zn210       O212   1.941   1_556  S
Zn210       O215   2.017       .  S
Zn210       O218   2.006   1_556  S
Zn210       O221   2.106       .  S
Zn211       O212   1.929       .  S
Zn211       O219   2.083       .  S
Zn211       O222   2.005       .  S
Zn211       O223   1.989   1_554  S
O213        C225   1.276       .  A
O214        C226   1.276       .  A
O215        C227   1.276       .  A
O216        C225   1.277   1_554  A
O217        C227   1.277       .  A
O218        C226   1.277       .  A
O219        C228   1.278   1_554  A
O220        C229   1.268       .  A
O221        C228   1.281       .  A
O222        C229   1.275       .  A
O223        C230   1.275       .  A
O224        C230   1.268       .  A
C225       C2738   1.521   1_556  S
C226       C2722   1.466       .  S
C227       C3061   1.480       .  S
C228       C2821   1.532       .  S
C229       C2690   1.458       .  S
C230       C2706   1.446       .  S
Zn231       O235   1.952       .  S
Zn231       O236   2.018       .  S
Zn231       O240   2.021       .  S
Zn231       O247   2.122       .  S
Zn232       O235   1.945       .  S
Zn232       O237   2.065       .  S
Zn232       O239   2.013       .  S
Zn232       O243   1.974       .  S
Zn233       O235   1.944       .  S
Zn233       O238   2.002       .  S
Zn233       O241   2.062       .  S
Zn233       O244   1.991       .  S
Zn234       O235   1.923       .  S
Zn234       O242   1.984       .  S
Zn234       O245   1.983       .  S
Zn234       O246   2.058       .  S
O236        C248   1.278       .  A
O237        C249   1.276       .  A
O238        C250   1.277       .  A
O239        C248   1.276       .  A
O240        C250   1.278       .  A
O241        C249   1.278       .  A
O242        C251   1.272       .  A
O243        C252   1.269       .  A
O244        C251   1.269       .  A
O245        C252   1.273       .  A
O246        C253   1.276       .  A
O247        C253   1.283       .  A
C248       C2645   1.476       .  S
C249       C2658   1.517       .  S
C250       C2629   1.473       .  S
C251       C2693   1.451       .  S
C252       C2757   1.453       .  S
C253       C2674   1.526       .  S
Zn254       O258   1.906       .  S
Zn254       O259   1.957       .  S
Zn254       O263   2.086       .  S
Zn254       O270   1.971       .  S
Zn255       O258   1.915       .  S
Zn255       O260   2.016       .  S
Zn255       O262   2.007       .  S
Zn255       O266   2.020       .  S
Zn256       O258   1.922       .  S
Zn256       O261   2.084       .  S
Zn256       O264   1.948       .  S
Zn256       O267   1.973       .  S
Zn257       O258   1.966       .  S
Zn257       O265   2.049       .  S
Zn257       O268   2.141       .  S
Zn257       O269   2.060       .  S
O259        C271   1.268       .  A
O260        C272   1.275       .  A
O261        C273   1.276       .  A
O262        C271   1.276       .  A
O263        C273   1.277       .  A
O264        C272   1.269       .  A
O265        C274   1.280       .  A
O266        C275   1.273       .  A
O267        C274   1.273       .  A
O268        C275   1.286       .  A
O269        C276   1.282       .  A
O270        C276   1.275       .  A
C271       C2773   1.464       .  S
C272       C2709   1.478       .  S
C273       C2677   1.517       .  S
C274       C2594   1.462       .  S
C275       C2869   1.517       .  S
C276       C2613   1.474       .  S
Zn277       O281   1.909       .  S
Zn277       O282   2.000   1_554  S
Zn277       O286   1.999       .  S
Zn277       O293   2.048       .  S
Zn278       O281   1.918   1_556  S
Zn278       O283   2.053       .  S
Zn278       O285   1.976       .  S
Zn278       O289   1.997       .  S
Zn279       O281   1.930       .  S
Zn279       O284   1.973       .  S
Zn279       O287   2.072       .  S
Zn279       O290   2.038       .  S
Zn280       O281   1.931       .  S
Zn280       O288   2.009       .  S
Zn280       O291   2.022   1_554  S
Zn280       O292   2.115       .  S
O282        C294   1.274       .  A
O283        C295   1.277   1_556  A
O284        C296   1.270       .  A
O285        C294   1.268       .  A
O286        C296   1.276       .  A
O287        C295   1.279       .  A
O288        C297   1.276       .  A
O289        C298   1.277       .  A
O290        C297   1.281       .  A
O291        C298   1.278       .  A
O292        C299   1.283       .  A
O293        C299   1.274       .  A
C294       C2546   1.452       .  S
C295       C2741   1.521       .  S
C296       C2530   1.454       .  S
C297       C2562   1.492       .  S
C298       C3365   1.475       .  S
C299       C2578   1.531       .  S
Zn300       O304   1.934   1_556  S
Zn300       O305   2.052       .  S
Zn300       O309   1.994       .  S
Zn300       O316   1.973       .  S
Zn301       O304   1.929       .  S
Zn301       O306   2.015       .  S
Zn301       O308   2.065       .  S
Zn301       O312   1.993       .  S
Zn302       O304   1.931       .  S
Zn302       O307   2.009   1_554  S
Zn302       O310   2.008       .  S
Zn302       O313   2.109       .  S
Zn303       O304   1.900       .  S
Zn303       O311   2.058       .  S
Zn303       O314   1.980       .  S
Zn303       O315   1.979   1_554  S
O305        C317   1.276   1_556  A
O306        C318   1.277       .  A
O307        C319   1.278       .  A
O308        C317   1.277       .  A
O309        C319   1.274       .  A
O310        C318   1.279       .  A
O311        C320   1.277       .  A
O312        C321   1.272       .  A
O313        C320   1.281       .  A
O314        C321   1.274       .  A
O315        C322   1.274       .  A
O316        C322   1.268       .  A
C317       C2514   1.516       .  S
C318       C2498   1.486       .  S
C319       C3266   1.482       .  S
C320       C2581   1.531       .  S
C321       C2466   1.458       .  S
C322       C2482   1.450       .  S
Zn323       O327   1.936       .  S
Zn323       O328   2.097       .  S
Zn323       O332   2.015       .  S
Zn323       O339   1.997       .  S
Zn324       O327   1.923       .  S
Zn324       O329   2.000       .  S
Zn324       O331   2.070       .  S
Zn324       O335   2.005       .  S
Zn325       O327   1.925       .  S
Zn325       O330   2.007       .  S
Zn325       O333   1.976       .  S
Zn325       O336   2.059       .  S
Zn326       O327   1.942       .  S
Zn326       O334   2.074       .  S
Zn326       O337   1.969       .  S
Zn326       O338   2.033       .  S
O328        C340   1.280       .  A
O329        C341   1.275       .  A
O330        C342   1.277       .  A
O331        C340   1.277       .  A
O332        C342   1.277       .  A
O333        C341   1.269       .  A
O334        C343   1.278       .  A
O335        C344   1.275       .  A
O336        C343   1.278       .  A
O337        C344   1.269       .  A
O338        C345   1.280       .  A
O339        C345   1.274       .  A
C340       C2450   1.519       .  S
C341       C2533   1.455       .  S
C342       C2626   1.475       .  S
C343       C2437   1.518       .  S
C344       C2469   1.451       .  S
C345       C2418   1.480       .  S
Zn346       O350   1.963       .  S
Zn346       O351   2.102       .  S
Zn346       O355   2.017       .  S
Zn346       O362   2.041       .  S
Zn347       O350   1.933       .  S
Zn347       O352   2.014       .  S
Zn347       O354   2.022       .  S
Zn347       O358   2.013       .  S
Zn348       O350   1.929       .  S
Zn348       O353   2.010       .  S
Zn348       O356   1.962       .  S
Zn348       O359   2.091       .  S
Zn349       O350   1.918       .  S
Zn349       O357   2.074       .  S
Zn349       O360   1.949       .  S
Zn349       O361   1.970       .  S
O351        C363   1.282       .  A
O352        C364   1.277       .  A
O353        C365   1.277       .  A
O354        C363   1.272       .  A
O355        C365   1.276       .  A
O356        C364   1.270       .  A
O357        C366   1.275       .  A
O358        C367   1.277       .  A
O359        C366   1.278       .  A
O360        C367   1.265       .  A
O361        C368   1.272       .  A
O362        C368   1.278       .  A
C363       C3157   1.501       .  S
C364       C2549   1.470       .  S
C365       C2597   1.464       .  S
C366       C2453   1.523       .  S
C367       C2485   1.475       .  S
C368       C2402   1.473       .  S
Zn369       O373   1.910       .  S
Zn369       O374   1.973       .  S
Zn369       O378   1.988   1_655  S
Zn369       O385   2.053   1_655  S
Zn370       O373   1.952       .  S
Zn370       O375   2.079       .  S
Zn370       O377   2.016       .  S
Zn370       O381   2.029       .  S
Zn371       O373   1.938   1_455  S
Zn371       O376   1.986       .  S
Zn371       O379   2.055       .  S
Zn371       O382   2.020       .  S
Zn372       O373   1.932       .  S
Zn372       O380   1.997   1_655  S
Zn372       O383   1.996       .  S
Zn372       O384   2.105       .  S
O374        C386   1.272       .  A
O375        C387   1.281       .  A
O376        C388   1.271       .  A
O377        C386   1.273       .  A
O378        C388   1.275       .  A
O379        C387   1.276   1_455  A
O380        C389   1.276       .  A
O381        C390   1.279       .  A
O382        C389   1.277       .  A
O383        C390   1.274       .  A
O384        C391   1.280   1_655  A
O385        C391   1.274       .  A
C386       C2338   1.456       .  S
C387       C3381   1.521       .  S
C388       C2322   1.460       .  S
C389       C2370   1.476       .  S
C390       C2354   1.484       .  S
C391       C2386   1.516       .  S
Zn392       O396   1.960       .  S
Zn392       O397   2.104       .  S
Zn392       O401   2.027       .  S
Zn392       O408   2.020   1_455  S
Zn393       O396   1.913       .  S
Zn393       O398   1.991       .  S
Zn393       O400   2.026       .  S
Zn393       O404   2.012   1_455  S
Zn394       O396   1.923       .  S
Zn394       O399   1.986       .  S
Zn394       O402   1.971       .  S
Zn394       O405   2.084       .  S
Zn395       O396   1.925   1_655  S
Zn395       O403   2.076       .  S
Zn395       O406   1.953       .  S
Zn395       O407   1.973       .  S
O397        C409   1.282       .  A
O398        C410   1.277       .  A
O399        C411   1.275       .  A
O400        C409   1.272       .  A
O401        C411   1.277       .  A
O402        C410   1.269       .  A
O403        C412   1.275   1_655  A
O404        C413   1.274       .  A
O405        C412   1.277       .  A
O406        C413   1.270       .  A
O407        C414   1.273       .  A
O408        C414   1.276       .  A
C409       C2309   1.503       .  S
C410       C2242   1.458       .  S
C411       C2274   1.466       .  S
C412       C2389   1.517       .  S
C413       C2258   1.475       .  S
C414       C2290   1.457       .  S
Zn415       O419   1.910       .  S
Zn415       O420   2.001       .  S
Zn415       O424   1.993       .  S
Zn415       O431   1.988       .  S
Zn416       O419   1.973       .  S
Zn416       O421   2.048       .  S
Zn416       O423   2.128       .  S
Zn416       O427   2.027       .  S
Zn417       O419   1.926       .  S
Zn417       O422   1.980       .  S
Zn417       O425   1.989       .  S
Zn417       O428   2.083       .  S
Zn418       O419   1.930       .  S
Zn418       O426   2.090       .  S
Zn418       O429   1.989       .  S
Zn418       O430   1.960       .  S
O420        C432   1.269       .  A
O421        C433   1.280       .  A
O422        C434   1.269       .  A
O423        C432   1.284       .  A
O424        C434   1.276       .  A
O425        C433   1.276       .  A
O426        C435   1.278       .  A
O427        C436   1.278       .  A
O428        C435   1.278       .  A
O429        C436   1.276       .  A
O430        C437   1.266       .  A
O431        C437   1.273       .  A
C432       C2210   1.516       .  S
C433       C3173   1.473       .  S
C434       C2325   1.468       .  S
C435       C2226   1.532       .  S
C436       C2194   1.467       .  S
C437       C2245   1.473       .  S
Zn438       O442   1.978       .  S
Zn438       O443   2.049       .  S
Zn438       O447   2.128       .  S
Zn438       O454   2.044       .  S
Zn439       O442   1.939       .  S
Zn439       O444   1.967       .  S
Zn439       O446   1.984       .  S
Zn439       O450   2.094       .  S
Zn440       O442   1.939       .  S
Zn440       O445   2.044       .  S
Zn440       O448   2.013       .  S
Zn440       O451   2.037       .  S
Zn441       O442   1.932       .  S
Zn441       O449   1.955       .  S
Zn441       O452   2.079       .  S
Zn441       O453   1.984       .  S
O443        C455   1.279       .  A
O444        C456   1.270       .  A
O445        C457   1.276       .  A
O446        C455   1.275       .  A
O447        C457   1.285       .  A
O448        C456   1.277       .  A
O449        C458   1.267       .  A
O450        C459   1.278       .  A
O451        C458   1.278       .  A
O452        C459   1.275       .  A
O453        C460   1.274       .  A
O454        C460   1.279       .  A
C455       C2162   1.469       .  S
C456       C2261   1.463       .  S
C457       C2178   1.517       .  S
C458       C2341   1.477       .  S
C459       C2229   1.534       .  S
C460       C3125   1.474       .  S
Zn461       O465   1.917   1_545  S
Zn461       O466   1.994       .  S
Zn461       O470   1.951       .  S
Zn461       O477   2.080       .  S
Zn462       O465   1.951   1_545  S
Zn462       O467   2.091       .  S
Zn462       O469   2.025       .  S
Zn462       O473   2.034   1_545  S
Zn463       O465   1.933       .  S
Zn463       O468   2.018   1_565  S
Zn463       O471   2.034       .  S
Zn463       O474   2.013       .  S
Zn464       O465   1.928       .  S
Zn464       O472   1.961       .  S
Zn464       O475   1.983       .  S
Zn464       O476   2.080       .  S
O466        C478   1.276       .  A
O467        C479   1.281   1_545  A
O468        C480   1.276       .  A
O469        C478   1.277       .  A
O470        C480   1.269       .  A
O471        C479   1.274       .  A
O472        C481   1.268       .  A
O473        C482   1.277       .  A
O474        C481   1.277       .  A
O475        C482   1.275       .  A
O476        C483   1.276   1_565  A
O477        C483   1.277       .  A
C478       C2130   1.468       .  S
C479       C3093   1.501       .  S
C480       C2098   1.467       .  S
C481       C2114   1.457       .  S
C482       C2357   1.465       .  S
C483       C2146   1.522       .  S
Zn484       O488   1.915       .  S
Zn484       O489   2.052       .  S
Zn484       O493   1.978       .  S
Zn484       O500   1.976   1_565  S
Zn485       O488   1.947       .  S
Zn485       O490   2.028       .  S
Zn485       O492   2.118       .  S
Zn485       O496   2.023   1_565  S
Zn486       O488   1.940       .  S
Zn486       O491   1.991       .  S
Zn486       O494   1.986       .  S
Zn486       O497   2.035       .  S
Zn487       O488   1.943   1_545  S
Zn487       O495   2.067       .  S
Zn487       O498   2.015       .  S
Zn487       O499   1.977       .  S
O489        C501   1.275       .  A
O490        C502   1.279       .  A
O491        C503   1.269       .  A
O492        C501   1.284       .  A
O493        C503   1.272       .  A
O494        C502   1.274       .  A
O495        C504   1.278   1_545  A
O496        C505   1.277       .  A
O497        C504   1.273       .  A
O498        C505   1.278       .  A
O499        C506   1.268       .  A
O500        C506   1.270       .  A
C501       C2149   1.525       .  S
C502       C2293   1.463       .  S
C503       C2050   1.459       .  S
C504       C2082   1.515       .  S
C505       C2066   1.482       .  S
C506       C2037   1.448       .  S
Zn507       O511   1.920       .  S
Zn507       O512   2.066       .  S
Zn507       O516   1.985       .  S
Zn507       O523   2.001       .  S
Zn508       O511   1.942       .  S
Zn508       O513   1.992       .  S
Zn508       O515   2.124       .  S
Zn508       O519   1.999       .  S
Zn509       O511   1.949       .  S
Zn509       O514   1.985       .  S
Zn509       O517   2.018       .  S
Zn509       O520   2.086       .  S
Zn510       O511   1.934       .  S
Zn510       O518   2.069       .  S
Zn510       O521   2.018       .  S
Zn510       O522   1.969       .  S
O512        C524   1.276       .  A
O513        C525   1.274       .  A
O514        C526   1.269       .  A
O515        C524   1.281       .  A
O516        C526   1.275       .  A
O517        C525   1.279       .  A
O518        C527   1.279       .  A
O519        C528   1.275       .  A
O520        C527   1.278       .  A
O521        C528   1.277       .  A
O522        C529   1.270       .  A
O523        C529   1.276       .  A
C524       C2018   1.528       .  S
C525       C2882   1.487       .  S
C526       C2101   1.450       .  S
C527       C2002   1.528       .  S
C528       C1986   1.466       .  S
C529       C2034   1.452       .  S
Zn530       O534   1.979       .  S
Zn530       O535   2.144       .  S
Zn530       O539   2.043       .  S
Zn530       O546   2.049       .  S
Zn531       O534   1.930       .  S
Zn531       O536   1.995       .  S
Zn531       O538   2.021       .  S
Zn531       O542   2.000       .  S
Zn532       O534   1.946       .  S
Zn532       O537   1.992       .  S
Zn532       O540   1.985       .  S
Zn532       O543   2.115       .  S
Zn533       O534   1.928       .  S
Zn533       O541   2.077       .  S
Zn533       O544   1.956       .  S
Zn533       O545   1.988       .  S
O535        C547   1.286       .  A
O536        C548   1.275       .  A
O537        C549   1.277       .  A
O538        C547   1.271       .  A
O539        C549   1.280       .  A
O540        C548   1.270       .  A
O541        C550   1.276       .  A
O542        C551   1.274       .  A
O543        C550   1.279       .  A
O544        C551   1.267       .  A
O545        C552   1.274       .  A
O546        C552   1.280       .  A
C547       C2181   1.517       .  S
C548       C2053   1.472       .  S
C549       C1970   1.469       .  S
C550       C2021   1.532       .  S
C551       C2117   1.464       .  S
C552       C2837   1.473       .  S
Zn553       O557   1.946       .  S
Zn553       O558   2.127       .  S
Zn553       O562   1.998       .  S
Zn553       O569   2.019   1_565  S
Zn554       O557   1.906       .  S
Zn554       O559   1.999       .  S
Zn554       O561   2.062       .  S
Zn554       O565   1.986   1_565  S
Zn555       O557   1.930       .  S
Zn555       O560   1.982       .  S
Zn555       O563   1.963       .  S
Zn555       O566   2.042       .  S
Zn556       O557   1.943   1_545  S
Zn556       O564   2.066       .  S
Zn556       O567   1.975       .  S
Zn556       O568   2.004       .  S
O558        C570   1.282       .  A
O559        C571   1.275       .  A
O560        C572   1.273       .  A
O561        C570   1.275       .  A
O562        C572   1.276       .  A
O563        C571   1.268       .  A
O564        C573   1.275   1_545  A
O565        C574   1.274       .  A
O566        C573   1.275       .  A
O567        C574   1.268       .  A
O568        C575   1.277       .  A
O569        C575   1.278       .  A
C570       C1954   1.538       .  S
C571       C1922   1.452       .  S
C572       C2725   1.461       .  S
C573       C2085   1.517       .  S
C574       C1909   1.446       .  S
C575       C1938   1.484       .  S
Zn576       O580   1.933       .  S
Zn576       O581   1.977       .  S
Zn576       O585   1.993       .  S
Zn576       O592   2.050       .  S
Zn577       O580   1.905       .  S
Zn577       O582   2.054       .  S
Zn577       O584   1.983       .  S
Zn577       O588   1.985   1_565  S
Zn578       O580   1.946       .  S
Zn578       O583   2.016       .  S
Zn578       O586   2.139       .  S
Zn578       O589   2.013   1_565  S
Zn579       O580   1.944   1_545  S
Zn579       O587   2.017       .  S
Zn579       O590   1.978       .  S
Zn579       O591   2.085       .  S
O581        C593   1.267       .  A
O582        C594   1.276       .  A
O583        C595   1.280       .  A
O584        C593   1.273       .  A
O585        C595   1.274       .  A
O586        C594   1.284       .  A
O587        C596   1.279       .  A
O588        C597   1.274       .  A
O589        C596   1.278       .  A
O590        C597   1.269       .  A
O591        C598   1.279   1_545  A
O592        C598   1.275       .  A
C593       C1858   1.446       .  S
C594       C1957   1.537       .  S
C595       C2789   1.472       .  S
C596       C1874   1.470       .  S
C597       C1845   1.453       .  S
C598       C1893   1.523       .  S
Zn599       O603   1.928       .  S
Zn599       O604   2.009       .  S
Zn599       O608   1.996       .  S
Zn599       O615   1.999       .  S
Zn600       O603   1.972       .  S
Zn600       O605   2.034       .  S
Zn600       O607   2.114       .  S
Zn600       O611   2.033       .  S
Zn601       O603   1.933       .  S
Zn601       O606   1.971       .  S
Zn601       O609   2.006       .  S
Zn601       O612   2.106       .  S
Zn602       O603   1.928       .  S
Zn602       O610   2.083       .  S
Zn602       O613   1.985       .  S
Zn602       O614   1.956       .  S
O604        C616   1.270       .  A
O605        C617   1.277       .  A
O606        C618   1.271       .  A
O607        C616   1.282       .  A
O608        C618   1.273       .  A
O609        C617   1.277       .  A
O610        C619   1.276       .  A
O611        C620   1.278       .  A
O612        C619   1.281       .  A
O613        C620   1.274       .  A
O614        C621   1.270       .  A
O615        C621   1.272       .  A
C616       C1810   1.507       .  S
C617       C1794   1.466       .  S
C618       C1842   1.472       .  S
C619       C1826   1.537       .  S
C620       C1989   1.462       .  S
C621       C1906   1.475       .  S
Zn622       O626   1.924       .  S
Zn622       O627   2.110       .  S
Zn622       O631   1.968       .  S
Zn622       O638   1.994       .  S
Zn623       O626   1.918       .  S
Zn623       O628   1.945       .  S
Zn623       O630   2.080       .  S
Zn623       O634   1.983       .  S
Zn624       O626   1.926       .  S
Zn624       O629   2.001       .  S
Zn624       O632   2.008       .  S
Zn624       O635   2.023       .  S
Zn625       O626   1.967       .  S
Zn625       O633   2.109       .  S
Zn625       O636   2.032       .  S
Zn625       O637   2.036       .  S
O627        C639   1.280       .  A
O628        C640   1.269       .  A
O629        C641   1.275       .  A
O630        C639   1.276       .  A
O631        C641   1.271       .  A
O632        C640   1.274       .  A
O633        C642   1.282       .  A
O634        C643   1.274       .  A
O635        C642   1.272       .  A
O636        C643   1.277       .  A
O637        C644   1.279       .  A
O638        C644   1.277       .  A
C639       C1829   1.539       .  S
C640       C1861   1.476       .  S
C641       C1925   1.470       .  S
C642       C2661   1.505       .  S
C643       C1781   1.471       .  S
C644       C1973   1.467       .  S
Zn645       O649   1.940   1_554  S
Zn645       O650   2.060       .  S
Zn645       O654   2.021       .  S
Zn645       O661   1.977       .  S
Zn646       O649   1.933       .  S
Zn646       O651   2.031       .  S
Zn646       O653   2.064       .  S
Zn646       O657   1.983       .  S
Zn647       O649   1.927       .  S
Zn647       O652   1.995   1_556  S
Zn647       O655   1.995       .  S
Zn647       O658   2.086       .  S
Zn648       O649   1.923       .  S
Zn648       O656   2.073       .  S
Zn648       O659   2.009       .  S
Zn648       O660   1.993   1_556  S
O650        C662   1.278       .  A
O651        C663   1.279       .  A
O652        C664   1.275       .  A
O653        C662   1.277   1_556  A
O654        C664   1.277       .  A
O655        C663   1.276       .  A
O656        C665   1.277       .  A
O657        C666   1.272       .  A
O658        C665   1.278       .  A
O659        C666   1.277       .  A
O660        C667   1.275       .  A
O661        C667   1.269       .  A
C662       C2517   1.518       .  S
C663       C3077   1.483       .  S
C664       C1941   1.485       .  S
C665       C1762   1.518       .  S
C666       C1746   1.463       .  S
C667       C1730   1.449       .  S
Zn668       O672   1.931   1_554  S
Zn668       O673   2.003       .  S
Zn668       O677   1.969       .  S
Zn668       O684   2.088       .  S
Zn669       O672   1.950       .  S
Zn669       O674   2.109       .  S
Zn669       O676   2.033   1_556  S
Zn669       O680   2.019       .  S
Zn670       O672   1.912       .  S
Zn670       O675   1.980   1_556  S
Zn670       O678   2.010       .  S
Zn670       O681   1.995       .  S
Zn671       O672   1.911       .  S
Zn671       O679   1.971       .  S
Zn671       O682   1.985       .  S
Zn671       O683   2.074       .  S
O673        C685   1.276       .  A
O674        C686   1.282       .  A
O675        C687   1.271       .  A
O676        C685   1.278       .  A
O677        C687   1.272       .  A
O678        C686   1.270       .  A
O679        C688   1.269       .  A
O680        C689   1.276       .  A
O681        C688   1.273       .  A
O682        C689   1.275       .  A
O683        C690   1.276       .  A
O684        C690   1.278   1_554  A
C685       C1877   1.467       .  S
C686       C1714   1.502       .  S
C687       C1682   1.473       .  S
C688       C1698   1.466       .  S
C689       C2981   1.457       .  S
C690       C1765   1.516       .  S
Zn691       O695   1.931       .  S
Zn691       O696   1.997       .  S
Zn691       O700   1.975       .  S
Zn691       O707   2.098       .  S
Zn692       O695   1.958       .  S
Zn692       O697   2.116       .  S
Zn692       O699   2.041       .  S
Zn692       O703   2.033       .  S
Zn693       O695   1.918       .  S
Zn693       O698   1.987       .  S
Zn693       O701   2.005       .  S
Zn693       O704   2.005       .  S
Zn694       O695   1.916       .  S
Zn694       O702   1.958       .  S
Zn694       O705   1.997       .  S
Zn694       O706   2.079       .  S
O696        C708   1.276       .  A
O697        C709   1.283       .  A
O698        C710   1.274       .  A
O699        C708   1.279       .  A
O700        C710   1.271       .  A
O701        C709   1.270       .  A
O702        C711   1.270       .  A
O703        C712   1.278       .  A
O704        C711   1.275       .  A
O705        C712   1.276       .  A
O706        C713   1.277       .  A
O707        C713   1.279       .  A
C708       C1650   1.468       .  S
C709       C1813   1.507       .  S
C710       C1685   1.464       .  S
C711       C1733   1.468       .  S
C712       C2421   1.464       .  S
C713       C1666   1.523       .  S
Zn714       O718   1.940       .  S
Zn714       O719   2.068       .  S
Zn714       O723   1.998       .  S
Zn714       O730   2.023       .  S
Zn715       O718   1.948       .  S
Zn715       O720   1.975       .  S
Zn715       O722   2.056       .  S
Zn715       O726   2.016       .  S
Zn716       O718   1.923       .  S
Zn716       O721   1.989       .  S
Zn716       O724   1.987       .  S
Zn716       O727   2.074       .  S
Zn717       O718   1.931       .  S
Zn717       O725   2.102       .  S
Zn717       O728   2.008       .  S
Zn717       O729   1.992       .  S
O719        C731   1.279       .  A
O720        C732   1.270       .  A
O721        C733   1.273       .  A
O722        C731   1.276       .  A
O723        C733   1.271       .  A
O724        C732   1.274       .  A
O725        C734   1.280       .  A
O726        C735   1.276       .  A
O727        C734   1.278       .  A
O728        C735   1.277       .  A
O729        C736   1.277       .  A
O730        C736   1.277       .  A
C731       C2917   1.512       .  S
C732       C1701   1.452       .  S
C733       C1749   1.454       .  S
C734       C1669   1.529       .  S
C735       C1634   1.477       .  S
C736       C2405   1.490       .  S
Zn737       O741   1.922       .  S
Zn737       O742   2.004   1_556  S
Zn737       O746   2.058       .  S
Zn737       O753   1.987       .  S
Zn738       O741   1.936   1_554  S
Zn738       O743   1.992       .  S
Zn738       O745   1.956       .  S
Zn738       O749   2.053       .  S
Zn739       O741   1.950       .  S
Zn739       O744   2.140       .  S
Zn739       O747   2.026   1_556  S
Zn739       O750   2.021       .  S
Zn740       O741   1.944       .  S
Zn740       O748   2.004       .  S
Zn740       O751   2.074       .  S
Zn740       O752   1.986       .  S
O742        C754   1.275       .  A
O743        C755   1.274       .  A
O744        C756   1.285       .  A
O745        C754   1.267       .  A
O746        C756   1.274       .  A
O747        C755   1.278       .  A
O748        C757   1.276       .  A
O749        C758   1.274   1_554  A
O750        C757   1.280       .  A
O751        C758   1.279       .  A
O752        C759   1.269       .  A
O753        C759   1.274       .  A
C754       C1570   1.452       .  S
C755       C1605   1.463       .  S
C756       C1618   1.534       .  S
C757       C3285   1.477       .  S
C758       C1717   1.515       .  S
C759       C1586   1.450       .  S
Zn760       O764   1.919       .  S
Zn760       O765   1.963       .  S
Zn760       O769   1.998       .  S
Zn760       O776   2.097       .  S
Zn761       O764   1.926   1_554  S
Zn761       O766   2.037       .  S
Zn761       O768   2.004   1_554  S
Zn761       O772   2.009       .  S
Zn762       O764   1.960       .  S
Zn762       O767   2.028       .  S
Zn762       O770   2.122       .  S
Zn762       O773   2.034   1_556  S
Zn763       O764   1.942   1_554  S
Zn763       O771   1.998       .  S
Zn763       O774   1.967       .  S
Zn763       O775   2.102       .  S
O765        C777   1.272       .  A
O766        C778   1.273       .  A
O767        C779   1.277       .  A
O768        C777   1.276       .  A
O769        C779   1.276       .  A
O770        C778   1.283   1_556  A
O771        C780   1.276       .  A
O772        C781   1.278       .  A
O773        C780   1.279       .  A
O774        C781   1.268       .  A
O775        C782   1.278   1_554  A
O776        C782   1.279       .  A
C777       C1538   1.465       .  S
C778       C2802   1.517       .  S
C779       C3349   1.463       .  S
C780       C1554   1.469       .  S
C781       C1525   1.469       .  S
C782       C1621   1.532       .  S
Zn783       O787   1.934       .  S
Zn783       O788   1.992       .  S
Zn783       O792   1.971       .  S
Zn783       O799   2.093       .  S
Zn784       O787   1.961       .  S
Zn784       O789   2.121       .  S
Zn784       O791   2.038       .  S
Zn784       O795   2.043       .  S
Zn785       O787   1.917       .  S
Zn785       O790   1.993       .  S
Zn785       O793   2.009       .  S
Zn785       O796   1.990       .  S
Zn786       O787   1.924       .  S
Zn786       O794   1.969       .  S
Zn786       O797   2.002       .  S
Zn786       O798   2.091       .  S
O788        C800   1.276       .  A
O789        C801   1.284       .  A
O790        C802   1.273       .  A
O791        C800   1.279       .  A
O792        C802   1.268       .  A
O793        C801   1.270       .  A
O794        C803   1.270       .  A
O795        C804   1.279       .  A
O796        C803   1.273       .  A
O797        C804   1.276       .  A
O798        C805   1.278       .  A
O799        C805   1.279       .  A
C800       C2642   1.463       .  S
C801       C1493   1.511       .  S
C802       C1522   1.471       .  S
C803       C1573   1.464       .  S
C804       C1653   1.469       .  S
C805       C1509   1.527       .  S
Zn806       O810   1.926       .  S
Zn806       O811   2.084       .  S
Zn806       O815   2.010       .  S
Zn806       O822   1.992       .  S
Zn807       O810   1.930       .  S
Zn807       O812   2.003       .  S
Zn807       O814   2.108       .  S
Zn807       O818   2.004       .  S
Zn808       O810   1.943       .  S
Zn808       O813   1.977       .  S
Zn808       O816   2.030       .  S
Zn808       O819   2.084       .  S
Zn809       O810   1.935       .  S
Zn809       O817   2.054       .  S
Zn809       O820   2.025       .  S
Zn809       O821   1.965       .  S
O811        C823   1.277       .  A
O812        C824   1.277       .  A
O813        C825   1.271       .  A
O814        C823   1.281       .  A
O815        C825   1.278       .  A
O816        C824   1.280       .  A
O817        C826   1.276       .  A
O818        C827   1.273       .  A
O819        C826   1.279       .  A
O820        C827   1.278       .  A
O821        C828   1.268       .  A
O822        C828   1.276       .  A
C823       C1506   1.524       .  S
C824       C1637   1.475       .  S
C825       C1589   1.463       .  S
C826       C3205   1.522       .  S
C827       C2610   1.494       .  S
C828       C1541   1.447       .  S
Zn829       O833   1.965       .  S
Zn829       O834   2.046   1_455  S
Zn829       O838   2.052       .  S
Zn829       O845   2.109       .  S
Zn830       O833   1.923   1_655  S
Zn830       O835   2.061       .  S
Zn830       O837   1.986       .  S
Zn830       O841   1.966       .  S
Zn831       O833   1.931       .  S
Zn831       O836   1.980       .  S
Zn831       O839   2.077       .  S
Zn831       O842   1.977       .  S
Zn832       O833   1.926       .  S
Zn832       O840   2.000       .  S
Zn832       O843   2.001   1_455  S
Zn832       O844   2.019       .  S
O834        C846   1.278       .  A
O835        C847   1.274   1_655  A
O836        C848   1.274       .  A
O837        C846   1.273       .  A
O838        C848   1.280       .  A
O839        C847   1.277       .  A
O840        C849   1.274       .  A
O841        C850   1.269       .  A
O842        C849   1.271       .  A
O843        C850   1.274       .  A
O844        C851   1.272       .  A
O845        C851   1.284       .  A
C846       C2565   1.469       .  S
C847       C1474   1.524       .  S
C848       C1557   1.466       .  S
C849       C1445   1.466       .  S
C850       C1458   1.470       .  S
C851       C2306   1.503       .  S
Zn852       O856   1.916       .  S
Zn852       O857   1.991       .  S
Zn852       O861   1.957       .  S
Zn852       O868   2.083       .  S
Zn853       O856   1.951       .  S
Zn853       O858   2.108       .  S
Zn853       O860   2.027       .  S
Zn853       O864   2.048   1_455  S
Zn854       O856   1.918   1_655  S
Zn854       O859   2.030   1_655  S
Zn854       O862   2.019       .  S
Zn854       O865   2.011       .  S
Zn855       O856   1.918   1_655  S
Zn855       O863   1.952       .  S
Zn855       O866   1.977       .  S
Zn855       O867   2.055       .  S
O857        C869   1.276       .  A
O858        C870   1.283   1_455  A
O859        C871   1.278       .  A
O860        C869   1.278       .  A
O861        C871   1.268       .  A
O862        C870   1.273       .  A
O863        C872   1.267       .  A
O864        C873   1.280       .  A
O865        C872   1.278       .  A
O866        C873   1.272       .  A
O867        C874   1.274   1_655  A
O868        C874   1.276       .  A
C869       C1602   1.471       .  S
C870       C1426   1.507       .  S
C871       C1394   1.478       .  S
C872       C1413   1.452       .  S
C873       C2501   1.471       .  S
C874       C1477   1.522       .  S
Zn875       O879   1.921       .  S
Zn875       O880   2.052       .  S
Zn875       O884   1.972       .  S
Zn875       O891   1.995       .  S
Zn876       O879   1.944       .  S
Zn876       O881   2.014       .  S
Zn876       O883   2.122       .  S
Zn876       O887   2.012       .  S
Zn877       O879   1.946       .  S
Zn877       O882   2.004       .  S
Zn877       O885   2.026       .  S
Zn877       O888   2.079       .  S
Zn878       O879   1.951       .  S
Zn878       O886   2.052       .  S
Zn878       O889   2.000       .  S
Zn878       O890   1.978       .  S
O880        C892   1.274       .  A
O881        C893   1.279       .  A
O882        C894   1.271       .  A
O883        C892   1.282       .  A
O884        C894   1.272       .  A
O885        C893   1.277       .  A
O886        C895   1.275       .  A
O887        C896   1.277       .  A
O888        C895   1.280       .  A
O889        C896   1.274       .  A
O890        C897   1.269       .  A
O891        C897   1.274       .  A
C892       C1381   1.519       .  S
C893       C1362   1.494       .  S
C894       C1397   1.452       .  S
C895       C1490   1.510       .  S
C896       C2197   1.460       .  S
C897       C1442   1.458       .  S
Zn898       O902   1.943       .  S
Zn898       O903   1.997       .  S
Zn898       O907   1.976       .  S
Zn898       O914   2.103       .  S
Zn899       O902   1.958       .  S
Zn899       O904   2.106       .  S
Zn899       O906   2.032       .  S
Zn899       O910   2.031       .  S
Zn900       O902   1.925       .  S
Zn900       O905   1.992       .  S
Zn900       O908   2.033       .  S
Zn900       O911   1.998       .  S
Zn901       O902   1.913       .  S
Zn901       O909   1.956       .  S
Zn901       O912   1.980       .  S
Zn901       O913   2.068       .  S
O903        C915   1.278       .  A
O904        C916   1.282       .  A
O905        C917   1.276       .  A
O906        C915   1.279       .  A
O907        C917   1.269       .  A
O908        C916   1.273       .  A
O909        C918   1.270       .  A
O910        C919   1.278       .  A
O911        C918   1.272       .  A
O912        C919   1.272       .  A
O913        C920   1.275       .  A
O914        C920   1.279       .  A
C915       C2165   1.473       .  S
C916       C2434   1.513       .  S
C917       C1461   1.463       .  S
C918       C1410   1.467       .  S
C919       C1346   1.476       .  S
C920       C1378   1.534       .  S
Zn921       O925   1.946       .  S
Zn921       O926   2.033       .  S
Zn921       O930   2.010       .  S
Zn921       O937   2.093       .  S
Zn922       O925   1.936       .  S
Zn922       O927   2.103       .  S
Zn922       O929   2.004       .  S
Zn922       O933   2.002   1_545  S
Zn923       O925   1.916       .  S
Zn923       O928   1.983       .  S
Zn923       O931   2.059       .  S
Zn923       O934   2.003   1_545  S
Zn924       O925   1.932   1_565  S
Zn924       O932   1.962       .  S
Zn924       O935   2.006       .  S
Zn924       O936   2.037       .  S
O926        C938   1.279       .  A
O927        C939   1.281       .  A
O928        C940   1.274       .  A
O929        C938   1.278       .  A
O930        C940   1.272       .  A
O931        C939   1.275       .  A
O932        C941   1.268       .  A
O933        C942   1.274       .  A
O934        C941   1.276       .  A
O935        C942   1.275       .  A
O936        C943   1.273   1_565  A
O937        C943   1.281       .  A
C938       C1314   1.489       .  S
C939       C1333   1.517       .  S
C940       C1282   1.455       .  S
C941       C1298   1.453       .  S
C942       C2373   1.472       .  S
C943       C3013   1.521       .  S
Zn944       O948   1.913   1_565  S
Zn944       O949   1.986       .  S
Zn944       O953   1.981   1_565  S
Zn944       O960   2.012       .  S
Zn945       O948   1.928   1_565  S
Zn945       O950   2.089       .  S
Zn945       O952   1.979       .  S
Zn945       O956   1.985       .  S
Zn946       O948   1.922       .  S
Zn946       O951   1.962       .  S
Zn946       O954   2.070       .  S
Zn946       O957   1.983       .  S
Zn947       O948   1.953       .  S
Zn947       O955   2.022       .  S
Zn947       O958   2.036   1_545  S
Zn947       O959   2.113       .  S
O949        C961   1.273       .  A
O950        C962   1.277   1_565  A
O951        C963   1.270       .  A
O952        C961   1.271       .  A
O953        C963   1.273       .  A
O954        C962   1.276       .  A
O955        C964   1.276       .  A
O956        C965   1.276       .  A
O957        C964   1.273       .  A
O958        C965   1.279       .  A
O959        C966   1.283   1_545  A
O960        C966   1.270       .  A
C961       C1250   1.462       .  S
C962       C1330   1.525       .  S
C963       C1234   1.464       .  S
C964       C1266   1.457       .  S
C965       C2277   1.468       .  S
C966       C1890   1.502       .  S
Zn967       O971   1.938       .  S
Zn967       O972   1.996       .  S
Zn967       O976   1.956       .  S
Zn967       O983   2.094       .  S
Zn968       O971   1.962       .  S
Zn968       O973   2.112       .  S
Zn968       O975   2.047       .  S
Zn968       O979   2.042       .  S
Zn969       O971   1.934       .  S
Zn969       O974   2.001       .  S
Zn969       O977   2.022       .  S
Zn969       O980   2.024       .  S
Zn970       O971   1.915       .  S
Zn970       O978   1.965       .  S
Zn970       O981   1.981       .  S
Zn970       O982   2.074       .  S
O972        C984   1.275       .  A
O973        C985   1.283       .  A
O974        C986   1.276       .  A
O975        C984   1.279       .  A
O976        C986   1.268       .  A
O977        C985   1.273       .  A
O978        C987   1.270       .  A
O979        C988   1.279       .  A
O980        C987   1.274       .  A
O981        C988   1.274       .  A
O982        C989   1.277       .  A
O983        C989   1.277       .  A
C984       C1797   1.468       .  S
C985       C1205   1.507       .  S
C986       C1237   1.456       .  S
C987       C1285   1.482       .  S
C988       C2898   1.472       .  S
C989       C1218   1.531       .  S
Zn990       O994   1.921       .  S
Zn990       O995   1.989       .  S
Zn990       O999   1.987       .  S
Zn990      O1006   2.014       .  S
Zn991       O994   1.940       .  S
Zn991       O996   2.092       .  S
Zn991       O998   1.970       .  S
Zn991      O1002   1.980       .  S
Zn992       O994   1.928       .  S
Zn992       O997   1.975       .  S
Zn992      O1000   2.088       .  S
Zn992      O1003   1.986       .  S
Zn993       O994   1.976       .  S
Zn993      O1001   2.044       .  S
Zn993      O1004   2.039       .  S
Zn993      O1005   2.119       .  S
O995       C1007   1.271       .  A
O996       C1008   1.278       .  A
O997       C1009   1.267       .  A
O998       C1007   1.270       .  A
O999       C1009   1.275       .  A
O1000      C1008   1.278       .  A
O1001      C1010   1.279       .  A
O1002      C1011   1.276       .  A
O1003      C1010   1.275       .  A
O1004      C1011   1.278       .  A
O1005      C1012   1.282       .  A
O1006      C1012   1.272       .  A
C1007      C1253   1.471       .  S
C1008      C1221   1.526       .  S
C1009      C1301   1.470       .  S
C1010      C2853   1.467       .  S
C1011      C1778   1.475       .  S
C1012      C2213   1.515       .  S
Zn1013     O1017   1.925   1_455  S
Zn1013     O1018   1.962       .  S
Zn1013     O1022   2.092       .  S
Zn1013     O1029   1.989       .  S
Zn1014     O1017   1.914   1_455  S
Zn1014     O1019   2.014   1_455  S
Zn1014     O1021   2.008       .  S
Zn1014     O1025   2.023       .  S
Zn1015     O1017   1.900       .  S
Zn1015     O1020   2.084       .  S
Zn1015     O1023   1.953       .  S
Zn1015     O1026   1.991       .  S
Zn1016     O1017   1.947       .  S
Zn1016     O1024   2.033       .  S
Zn1016     O1027   2.122       .  S
Zn1016     O1028   2.049   1_655  S
O1018      C1030   1.267       .  A
O1019      C1031   1.276       .  A
O1020      C1032   1.277       .  A
O1021      C1030   1.278       .  A
O1022      C1032   1.278   1_455  A
O1023      C1031   1.270       .  A
O1024      C1033   1.279       .  A
O1025      C1034   1.274       .  A
O1026      C1033   1.275       .  A
O1027      C1034   1.285   1_655  A
O1028      C1035   1.281       .  A
O1029      C1035   1.276       .  A
C1030      C1154   1.464       .  S
C1031      C1173   1.467       .  S
C1032      C1186   1.529       .  S
C1033      C2133   1.471       .  S
C1034      C3301   1.511       .  S
C1035      C1317   1.474       .  S
Zn1036     O1040   1.950   1_455  S
Zn1036     O1041   2.067       .  S
Zn1036     O1045   2.010       .  S
Zn1036     O1052   1.979       .  S
Zn1037     O1040   1.935       .  S
Zn1037     O1042   2.012       .  S
Zn1037     O1044   2.058       .  S
Zn1037     O1048   1.969       .  S
Zn1038     O1040   1.938       .  S
Zn1038     O1043   1.994   1_655  S
Zn1038     O1046   2.016       .  S
Zn1038     O1049   2.103       .  S
Zn1039     O1040   1.922       .  S
Zn1039     O1047   2.083       .  S
Zn1039     O1050   1.982       .  S
Zn1039     O1051   1.986   1_655  S
O1041      C1053   1.276   1_455  A
O1042      C1054   1.276       .  A
O1043      C1055   1.275       .  A
O1044      C1053   1.276       .  A
O1045      C1055   1.277       .  A
O1046      C1054   1.277       .  A
O1047      C1056   1.278       .  A
O1048      C1057   1.268       .  A
O1049      C1056   1.281       .  A
O1050      C1057   1.273       .  A
O1051      C1058   1.274       .  A
O1052      C1058   1.270       .  A
C1053      C1429   1.513       .  S
C1054      C2069   1.479       .  S
C1055      C1269   1.471       .  S
C1056      C1189   1.528       .  S
C1057      C1138   1.443       .  S
C1058      C1122   1.457       .  S
Zn1059     O1063   1.923       .  S
Zn1059     O1064   1.981       .  S
Zn1059     O1068   1.964       .  S
Zn1059     O1075   2.089       .  S
Zn1060     O1063   1.959       .  S
Zn1060     O1065   2.121       .  S
Zn1060     O1067   2.043       .  S
Zn1060     O1071   2.045       .  S
Zn1061     O1063   1.917       .  S
Zn1061     O1066   2.005       .  S
Zn1061     O1069   2.009       .  S
Zn1061     O1072   2.004       .  S
Zn1062     O1063   1.912       .  S
Zn1062     O1070   1.962       .  S
Zn1062     O1073   1.980       .  S
Zn1062     O1074   2.078       .  S
O1064      C1076   1.274       .  A
O1065      C1077   1.284       .  A
O1066      C1078   1.275       .  A
O1067      C1076   1.280       .  A
O1068      C1078   1.269       .  A
O1069      C1077   1.271       .  A
O1070      C1079   1.269       .  A
O1071      C1080   1.279       .  A
O1072      C1079   1.276       .  A
O1073      C1080   1.274       .  A
O1074      C1081   1.277       .  A
O1075      C1081   1.278       .  A
C1076      C3189   1.473       .  S
C1077      C1202   1.507       .  S
C1078      C1157   1.469       .  S
C1079      C1125   1.461       .  S
C1080      C1365   1.471       .  S
C1081      C1109   1.517       .  S
Zn1082     O1086   1.914       .  S
Zn1082     O1087   1.958       .  S
Zn1082     O1091   2.001       .  S
Zn1082     O1098   2.038       .  S
Zn1083     O1086   1.909       .  S
Zn1083     O1088   2.060       .  S
Zn1083     O1090   1.990       .  S
Zn1083     O1094   1.972       .  S
Zn1084     O1086   1.924       .  S
Zn1084     O1089   2.019       .  S
Zn1084     O1092   2.108       .  S
Zn1084     O1095   1.995       .  S
Zn1085     O1086   1.938       .  S
Zn1085     O1093   2.029       .  S
Zn1085     O1096   1.989       .  S
Zn1085     O1097   2.106       .  S
O1087      C1099   1.269       .  A
O1088      C1100   1.275       .  A
O1089      C1101   1.277       .  A
O1090      C1099   1.274       .  A
O1091      C1101   1.275       .  A
O1092      C1100   1.281       .  A
O1093      C1102   1.282       .  A
O1094      C1103   1.274       .  A
O1095      C1102   1.275       .  A
O1096      C1103   1.270       .  A
O1097      C1104   1.283       .  A
O1098      C1104   1.274       .  A
C1099      C1141   1.456       .  S
C1100      C1106   1.520       .  S
C1101      C1349   1.461       .  S
C1102      C3141   1.484       .  S
C1103      C1170   1.452       .  S
C1104      C2005   1.526       .  S
C1105      C1106   1.410       .  A
C1105      C1110   1.419   1_655  A
C1105      H1112   1.084       .  S
C1106      C1107   1.422       .  A
C1107      C1108   1.423   1_655  A
C1107      C1114   1.506       .  S
C1108      C1109   1.410       .  A
C1108      H1113   1.084       .  S
C1109      C1110   1.421       .  A
C1110      C1111   1.508       .  S
C1111      H1115   1.111       .  S
C1111      H1116   1.110       .  S
C1111      H1117   1.109       .  S
C1114      H1118   1.110       .  S
C1114      H1119   1.110       .  S
C1114      H1120   1.111       .  S
C1121      C1122   1.403       .  A
C1121      C1126   1.398       .  A
C1121      H1128   1.084       .  S
C1122      C1123   1.409       .  A
C1123      C1124   1.392       .  A
C1123      C1130   1.510       .  S
C1124      C1125   1.404       .  A
C1124      H1129   1.084       .  S
C1125      C1126   1.409       .  A
C1126      C1127   1.508       .  S
C1127      H1131   1.111       .  S
C1127      H1132   1.108       .  S
C1127      H1133   1.111       .  S
C1130      H1134   1.108       .  S
C1130      H1135   1.110       .  S
C1130      H1136   1.111       .  S
C1137      C1138   1.400       .  A
C1137      C1142   1.394       .  A
C1137      H1144   1.085       .  S
C1138      C1139   1.402       .  A
C1139      C1140   1.394       .  A
C1139      C1146   1.507       .  S
C1140      C1141   1.406       .  A
C1140      H1145   1.085       .  S
C1141      C1142   1.410       .  A
C1142      C1143   1.508       .  S
C1143      H1147   1.111       .  S
C1143      H1148   1.110       .  S
C1143      H1149   1.109       .  S
C1146      H1150   1.110       .  S
C1146      H1151   1.110       .  S
C1146      H1152   1.111       .  S
C1153      C1154   1.398       .  A
C1153      C1158   1.396       .  A
C1153      H1160   1.085       .  S
C1154      C1155   1.418       .  A
C1155      C1156   1.395       .  A
C1155      C1162   1.510       .  S
C1156      C1157   1.399       .  A
C1156      H1161   1.084       .  S
C1157      C1158   1.417       .  A
C1158      C1159   1.508       .  S
C1159      H1163   1.111       .  S
C1159      H1164   1.107       .  S
C1159      H1165   1.110       .  S
C1162      H1166   1.110       .  S
C1162      H1167   1.110       .  S
C1162      H1168   1.111       .  S
C1169      C1170   1.401       .  A
C1169      C1174   1.394       .  A
C1169      H1176   1.085       .  S
C1170      C1171   1.401       .  A
C1171      C1172   1.398       .  A
C1171      C1178   1.505       .  S
C1172      C1173   1.410       .  A
C1172      H1177   1.084       .  S
C1173      C1174   1.413       .  A
C1174      C1175   1.509       .  S
C1175      H1179   1.111       .  S
C1175      H1180   1.110       .  S
C1175      H1181   1.110       .  S
C1178      H1182   1.110       .  S
C1178      H1183   1.110       .  S
C1178      H1184   1.111       .  S
C1185      C1186   1.412   1_455  A
C1185      C1190   1.423       .  A
C1185      H1192   1.084       .  S
C1186      C1187   1.426       .  A
C1187      C1188   1.422       .  A
C1187      C1194   1.508       .  S
C1188      C1189   1.412       .  A
C1188      H1193   1.084       .  S
C1189      C1190   1.423   1_655  A
C1190      C1191   1.506       .  S
C1191      H1195   1.111       .  S
C1191      H1196   1.110       .  S
C1191      H1197   1.109       .  S
C1194      H1198   1.111       .  S
C1194      H1199   1.110       .  S
C1194      H1200   1.111       .  S
C1201      C1202   1.409       .  A
C1201      C1206   1.421       .  A
C1201      H1208   1.084       .  S
C1202      C1203   1.421       .  A
C1203      C1204   1.411       .  A
C1203      C1210   1.509       .  S
C1204      C1205   1.406       .  A
C1204      H1209   1.084       .  S
C1205      C1206   1.419       .  A
C1206      C1207   1.505       .  S
C1207      H1211   1.111       .  S
C1207      H1212   1.110       .  S
C1207      H1213   1.111       .  S
C1210      H1214   1.110       .  S
C1210      H1215   1.109       .  S
C1210      H1216   1.111       .  S
C1217      C1218   1.411       .  A
C1217      C1222   1.418   1_545  A
C1217      H1224   1.083       .  S
C1218      C1219   1.428       .  A
C1219      C1220   1.425   1_545  A
C1219      C1226   1.506       .  S
C1220      C1221   1.411       .  A
C1220      H1225   1.084       .  S
C1221      C1222   1.422       .  A
C1222      C1223   1.505       .  S
C1223      H1227   1.111       .  S
C1223      H1228   1.106       .  S
C1223      H1229   1.111       .  S
C1226      H1230   1.110       .  S
C1226      H1231   1.107       .  S
C1226      H1232   1.111       .  S
C1233      C1234   1.400       .  A
C1233      C1238   1.391       .  A
C1233      H1240   1.084       .  S
C1234      C1235   1.414       .  A
C1235      C1236   1.395       .  A
C1235      C1242   1.507       .  S
C1236      C1237   1.399       .  A
C1236      H1241   1.085       .  S
C1237      C1238   1.415       .  A
C1238      C1239   1.510       .  S
C1239      H1243   1.111       .  S
C1239      H1244   1.111       .  S
C1239      H1245   1.110       .  S
C1242      H1246   1.110       .  S
C1242      H1247   1.109       .  S
C1242      H1248   1.111       .  S
C1249      C1250   1.402       .  A
C1249      C1254   1.395       .  A
C1249      H1256   1.085       .  S
C1250      C1251   1.409       .  A
C1251      C1252   1.397       .  A
C1251      C1258   1.509       .  S
C1252      C1253   1.407       .  A
C1252      H1257   1.084       .  S
C1253      C1254   1.415       .  A
C1254      C1255   1.509       .  S
C1255      H1259   1.111       .  S
C1255      H1260   1.110       .  S
C1255      H1261   1.110       .  S
C1258      H1262   1.108       .  S
C1258      H1263   1.110       .  S
C1258      H1264   1.111       .  S
C1265      C1266   1.398       .  A
C1265      C1270   1.399       .  A
C1265      H1272   1.085       .  S
C1266      C1267   1.406       .  A
C1267      C1268   1.400       .  A
C1267      C1274   1.506       .  S
C1268      C1269   1.405       .  A
C1268      H1273   1.084       .  S
C1269      C1270   1.418       .  A
C1270      C1271   1.510       .  S
C1271      H1275   1.111       .  S
C1271      H1276   1.111       .  S
C1271      H1277   1.109       .  S
C1274      H1278   1.110       .  S
C1274      H1279   1.110       .  S
C1274      H1280   1.111       .  S
C1281      C1282   1.401       .  A
C1281      C1286   1.401       .  A
C1281      H1288   1.085       .  S
C1282      C1283   1.401       .  A
C1283      C1284   1.397       .  A
C1283      C1290   1.507       .  S
C1284      C1285   1.411       .  A
C1284      H1289   1.084       .  S
C1285      C1286   1.417       .  A
C1286      C1287   1.508       .  S
C1287      H1291   1.111       .  S
C1287      H1292   1.109       .  S
C1287      H1293   1.110       .  S
C1290      H1294   1.110       .  S
C1290      H1295   1.110       .  S
C1290      H1296   1.111       .  S
C1297      C1298   1.396       .  A
C1297      C1302   1.396       .  A
C1297      H1304   1.085       .  S
C1298      C1299   1.410       .  A
C1299      C1300   1.394       .  A
C1299      C1306   1.509       .  S
C1300      C1301   1.403       .  A
C1300      H1305   1.084       .  S
C1301      C1302   1.420       .  A
C1302      C1303   1.509       .  S
C1303      H1307   1.111       .  S
C1303      H1308   1.105       .  S
C1303      H1309   1.110       .  S
C1306      H1310   1.111       .  S
C1306      H1311   1.110       .  S
C1306      H1312   1.111       .  S
C1313      C1314   1.408       .  A
C1313      C1318   1.399       .  A
C1313      H1320   1.084       .  S
C1314      C1315   1.420       .  A
C1315      C1316   1.406       .  A
C1315      C1322   1.507       .  S
C1316      C1317   1.402       .  A
C1316      H1321   1.084       .  S
C1317      C1318   1.411       .  A
C1318      C1319   1.509       .  S
C1319      H1323   1.111       .  S
C1319      H1324   1.108       .  S
C1319      H1325   1.110       .  S
C1322      H1326   1.110       .  S
C1322      H1327   1.110       .  S
C1322      H1328   1.111       .  S
C1329      C1330   1.411       .  A
C1329      C1334   1.417       .  A
C1329      H1336   1.083       .  S
C1330      C1331   1.425   1_545  A
C1331      C1332   1.423       .  A
C1331      C1338   1.506       .  S
C1332      C1333   1.409   1_565  A
C1332      H1337   1.084       .  S
C1333      C1334   1.421       .  A
C1334      C1335   1.508       .  S
C1335      H1339   1.110       .  S
C1335      H1340   1.109       .  S
C1335      H1341   1.110       .  S
C1338      H1342   1.109       .  S
C1338      H1343   1.110       .  S
C1338      H1344   1.111       .  S
C1345      C1346   1.407       .  A
C1345      C1350   1.403       .  A
C1345      H1352   1.084       .  S
C1346      C1347   1.418       .  A
C1347      C1348   1.398       .  A
C1347      C1354   1.510       .  S
C1348      C1349   1.397       .  A
C1348      H1353   1.085       .  S
C1349      C1350   1.406       .  A
C1350      C1351   1.505       .  S
C1351      H1355   1.111       .  S
C1351      H1356   1.110       .  S
C1351      H1357   1.110       .  S
C1354      H1358   1.109       .  S
C1354      H1359   1.110       .  S
C1354      H1360   1.111       .  S
C1361      C1362   1.409       .  A
C1361      C1366   1.399       .  A
C1361      H1368   1.083       .  S
C1362      C1363   1.423       .  A
C1363      C1364   1.406       .  A
C1363      C1370   1.508       .  S
C1364      C1365   1.400       .  A
C1364      H1369   1.084       .  S
C1365      C1366   1.410       .  A
C1366      C1367   1.510       .  S
C1367      H1371   1.111       .  S
C1367      H1372   1.110       .  S
C1367      H1373   1.109       .  S
C1370      H1374   1.110       .  S
C1370      H1375   1.110       .  S
C1370      H1376   1.111       .  S
C1377      C1378   1.417       .  A
C1377      C1382   1.425   1_655  A
C1377      H1384   1.083       .  S
C1378      C1379   1.429       .  A
C1379      C1380   1.418   1_655  A
C1379      C1386   1.508       .  S
C1380      C1381   1.407       .  A
C1380      H1385   1.083       .  S
C1381      C1382   1.417       .  A
C1382      C1383   1.505       .  S
C1383      H1387   1.111       .  S
C1383      H1388   1.110       .  S
C1383      H1389   1.110       .  S
C1386      H1390   1.110       .  S
C1386      H1391   1.110       .  S
C1386      H1392   1.111       .  S
C1393      C1394   1.404       .  A
C1393      C1398   1.398       .  A
C1393      H1400   1.084       .  S
C1394      C1395   1.424       .  A
C1395      C1396   1.398       .  A
C1395      C1402   1.510       .  S
C1396      C1397   1.392       .  A
C1396      H1401   1.085       .  S
C1397      C1398   1.408       .  A
C1398      C1399   1.508       .  S
C1399      H1403   1.111       .  S
C1399      H1404   1.109       .  S
C1399      H1405   1.110       .  S
C1402      H1406   1.109       .  S
C1402      H1407   1.110       .  S
C1402      H1408   1.111       .  S
C1409      C1410   1.408       .  A
C1409      C1414   1.395       .  A
C1409      H1416   1.084       .  S
C1410      C1411   1.414       .  A
C1411      C1412   1.394       .  A
C1411      C1418   1.509       .  S
C1412      C1413   1.401       .  A
C1412      H1417   1.085       .  S
C1413      C1414   1.402       .  A
C1414      C1415   1.507       .  S
C1415      H1419   1.111       .  S
C1415      H1420   1.109       .  S
C1415      H1421   1.111       .  S
C1418      H1422   1.110       .  S
C1418      H1423   1.110       .  S
C1418      H1424   1.110       .  S
C1425      C1426   1.407       .  A
C1425      C1430   1.411       .  A
C1425      H1432   1.084       .  S
C1426      C1427   1.418   1_655  A
C1427      C1428   1.420       .  A
C1427      C1434   1.505       .  S
C1428      C1429   1.412   1_455  A
C1428      H1433   1.084       .  S
C1429      C1430   1.422       .  A
C1430      C1431   1.509       .  S
C1431      H1435   1.111       .  S
C1431      H1436   1.111       .  S
C1431      H1437   1.110       .  S
C1434      H1438   1.110       .  S
C1434      H1439   1.110       .  S
C1434      H1440   1.111       .  S
C1441      C1442   1.403       .  A
C1441      C1446   1.399       .  A
C1441      H1448   1.085       .  S
C1442      C1443   1.407       .  A
C1443      C1444   1.394       .  A
C1443      C1450   1.509       .  S
C1444      C1445   1.405       .  A
C1444      H1449   1.084       .  S
C1445      C1446   1.412       .  A
C1446      C1447   1.508       .  S
C1447      H1451   1.111       .  S
C1447      H1452   1.108       .  S
C1447      H1453   1.110       .  S
C1450      H1454   1.109       .  S
C1450      H1455   1.110       .  S
C1450      H1456   1.111       .  S
C1457      C1458   1.402       .  A
C1457      C1462   1.396       .  A
C1457      H1464   1.084       .  S
C1458      C1459   1.417       .  A
C1459      C1460   1.396       .  A
C1459      C1466   1.510       .  S
C1460      C1461   1.399       .  A
C1460      H1465   1.085       .  S
C1461      C1462   1.416       .  A
C1462      C1463   1.511       .  S
C1463      H1467   1.111       .  S
C1463      H1468   1.110       .  S
C1463      H1469   1.110       .  S
C1466      H1470   1.109       .  S
C1466      H1471   1.110       .  S
C1466      H1472   1.111       .  S
C1473      C1474   1.413       .  A
C1473      C1478   1.420       .  A
C1473      H1480   1.083       .  S
C1474      C1475   1.425   1_455  A
C1475      C1476   1.416       .  A
C1475      C1482   1.508       .  S
C1476      C1477   1.411   1_655  A
C1476      H1481   1.084       .  S
C1477      C1478   1.423       .  A
C1478      C1479   1.507       .  S
C1479      H1483   1.111       .  S
C1479      H1484   1.110       .  S
C1479      H1485   1.110       .  S
C1482      H1486   1.110       .  S
C1482      H1487   1.110       .  S
C1482      H1488   1.110       .  S
C1489      C1490   1.405       .  A
C1489      C1494   1.412       .  A
C1489      H1496   1.084       .  S
C1490      C1491   1.422       .  A
C1491      C1492   1.420       .  A
C1491      C1498   1.506       .  S
C1492      C1493   1.409       .  A
C1492      H1497   1.084       .  S
C1493      C1494   1.424       .  A
C1494      C1495   1.510       .  S
C1495      H1499   1.111       .  S
C1495      H1500   1.110       .  S
C1495      H1501   1.109       .  S
C1498      H1502   1.110       .  S
C1498      H1503   1.109       .  S
C1498      H1504   1.111       .  S
C1505      C1506   1.410       .  A
C1505      C1510   1.423   1_556  A
C1505      H1512   1.084       .  S
C1506      C1507   1.422       .  A
C1507      C1508   1.423   1_556  A
C1507      C1514   1.507       .  S
C1508      C1509   1.413       .  A
C1508      H1513   1.084       .  S
C1509      C1510   1.423       .  A
C1510      C1511   1.506       .  S
C1511      H1515   1.111       .  S
C1511      H1516   1.110       .  S
C1511      H1517   1.110       .  S
C1514      H1518   1.110       .  S
C1514      H1519   1.110       .  S
C1514      H1520   1.111       .  S
C1521      C1522   1.401       .  A
C1521      C1526   1.394       .  A
C1521      H1528   1.084       .  S
C1522      C1523   1.416       .  A
C1523      C1524   1.398       .  A
C1523      C1530   1.510       .  S
C1524      C1525   1.401       .  A
C1524      H1529   1.084       .  S
C1525      C1526   1.418       .  A
C1526      C1527   1.511       .  S
C1527      H1531   1.111       .  S
C1527      H1532   1.111       .  S
C1527      H1533   1.110       .  S
C1530      H1534   1.108       .  S
C1530      H1535   1.110       .  S
C1530      H1536   1.111       .  S
C1537      C1538   1.400       .  A
C1537      C1542   1.393       .  A
C1537      H1544   1.084       .  S
C1538      C1539   1.417       .  A
C1539      C1540   1.396       .  A
C1539      C1546   1.506       .  S
C1540      C1541   1.394       .  A
C1540      H1545   1.085       .  S
C1541      C1542   1.410       .  A
C1542      C1543   1.509       .  S
C1543      H1547   1.111       .  S
C1543      H1548   1.110       .  S
C1543      H1549   1.109       .  S
C1546      H1550   1.110       .  S
C1546      H1551   1.110       .  S
C1546      H1552   1.111       .  S
C1553      C1554   1.401       .  A
C1553      C1558   1.401       .  A
C1553      H1560   1.084       .  S
C1554      C1555   1.414       .  A
C1555      C1556   1.404       .  A
C1555      C1562   1.507       .  S
C1556      C1557   1.400       .  A
C1556      H1561   1.084       .  S
C1557      C1558   1.412       .  A
C1558      C1559   1.508       .  S
C1559      H1563   1.111       .  S
C1559      H1564   1.111       .  S
C1559      H1565   1.110       .  S
C1562      H1566   1.110       .  S
C1562      H1567   1.111       .  S
C1562      H1568   1.111       .  S
C1569      C1570   1.401       .  A
C1569      C1574   1.395       .  A
C1569      H1576   1.085       .  S
C1570      C1571   1.403       .  A
C1571      C1572   1.394       .  A
C1571      C1578   1.507       .  S
C1572      C1573   1.408       .  A
C1572      H1577   1.084       .  S
C1573      C1574   1.413       .  A
C1574      C1575   1.509       .  S
C1575      H1579   1.111       .  S
C1575      H1580   1.109       .  S
C1575      H1581   1.110       .  S
C1578      H1582   1.109       .  S
C1578      H1583   1.110       .  S
C1578      H1584   1.111       .  S
C1585      C1586   1.394       .  A
C1585      C1590   1.397       .  A
C1585      H1592   1.085       .  S
C1586      C1587   1.409       .  A
C1587      C1588   1.396       .  A
C1587      C1594   1.508       .  S
C1588      C1589   1.401       .  A
C1588      H1593   1.084       .  S
C1589      C1590   1.416       .  A
C1590      C1591   1.508       .  S
C1591      H1595   1.111       .  S
C1591      H1596   1.110       .  S
C1591      H1597   1.110       .  S
C1594      H1598   1.110       .  S
C1594      H1599   1.110       .  S
C1594      H1600   1.111       .  S
C1601      C1602   1.402       .  A
C1601      C1606   1.398       .  A
C1601      H1608   1.085       .  S
C1602      C1603   1.415       .  A
C1603      C1604   1.403       .  A
C1603      C1610   1.506       .  S
C1604      C1605   1.399       .  A
C1604      H1609   1.084       .  S
C1605      C1606   1.410       .  A
C1606      C1607   1.508       .  S
C1607      H1611   1.111       .  S
C1607      H1612   1.110       .  S
C1607      H1613   1.110       .  S
C1610      H1614   1.109       .  S
C1610      H1615   1.110       .  S
C1610      H1616   1.111       .  S
C1617      C1618   1.413       .  A
C1617      C1622   1.428       .  A
C1617      H1624   1.083   1_556  S
C1618      C1619   1.429       .  A
C1619      C1620   1.421       .  A
C1619      C1626   1.509       .  S
C1620      C1621   1.409       .  A
C1620      H1625   1.084       .  S
C1621      C1622   1.425       .  A
C1622      C1623   1.505   1_556  S
C1623      H1627   1.111       .  S
C1623      H1628   1.111   1_554  S
C1623      H1629   1.109       .  S
C1626      H1630   1.110       .  S
C1626      H1631   1.109       .  S
C1626      H1632   1.111       .  S
C1633      C1634   1.402       .  A
C1633      C1638   1.398       .  A
C1633      H1640   1.085       .  S
C1634      C1635   1.415       .  A
C1635      C1636   1.405       .  A
C1635      C1642   1.507       .  S
C1636      C1637   1.403       .  A
C1636      H1641   1.084       .  S
C1637      C1638   1.415       .  A
C1638      C1639   1.509       .  S
C1639      H1643   1.111       .  S
C1639      H1644   1.108       .  S
C1639      H1645   1.111       .  S
C1642      H1646   1.110       .  S
C1642      H1647   1.110       .  S
C1642      H1648   1.111       .  S
C1649      C1650   1.402       .  A
C1649      C1654   1.403       .  A
C1649      H1656   1.084       .  S
C1650      C1651   1.411       .  A
C1651      C1652   1.403       .  A
C1651      C1658   1.507       .  S
C1652      C1653   1.402       .  A
C1652      H1657   1.084       .  S
C1653      C1654   1.411       .  A
C1654      C1655   1.507       .  S
C1655      H1659   1.111       .  S
C1655      H1660   1.111       .  S
C1655      H1661   1.110       .  S
C1658      H1662   1.109       .  S
C1658      H1663   1.111       .  S
C1658      H1664   1.111       .  S
C1665      C1666   1.410       .  A
C1665      C1670   1.424   1_554  A
C1665      H1672   1.084       .  S
C1666      C1667   1.423       .  A
C1667      C1668   1.419   1_554  A
C1667      C1674   1.508       .  S
C1668      C1669   1.412       .  A
C1668      H1673   1.084       .  S
C1669      C1670   1.425       .  A
C1670      C1671   1.506       .  S
C1671      H1675   1.111       .  S
C1671      H1676   1.110       .  S
C1671      H1677   1.110       .  S
C1674      H1678   1.110       .  S
C1674      H1679   1.110       .  S
C1674      H1680   1.111       .  S
C1681      C1682   1.407       .  A
C1681      C1686   1.395       .  A
C1681      H1688   1.084       .  S
C1682      C1683   1.417       .  A
C1683      C1684   1.394       .  A
C1683      C1690   1.510       .  S
C1684      C1685   1.402       .  A
C1684      H1689   1.084       .  S
C1685      C1686   1.410       .  A
C1686      C1687   1.509       .  S
C1687      H1691   1.111       .  S
C1687      H1692   1.110       .  S
C1687      H1693   1.108       .  S
C1690      H1694   1.110       .  S
C1690      H1695   1.110       .  S
C1690      H1696   1.111       .  S
C1697      C1698   1.406       .  A
C1697      C1702   1.393       .  A
C1697      H1704   1.084       .  S
C1698      C1699   1.413       .  A
C1699      C1700   1.397       .  A
C1699      C1706   1.508       .  S
C1700      C1701   1.400       .  A
C1700      H1705   1.085       .  S
C1701      C1702   1.405       .  A
C1702      C1703   1.508       .  S
C1703      H1707   1.111       .  S
C1703      H1708   1.109       .  S
C1703      H1709   1.110       .  S
C1706      H1710   1.109       .  S
C1706      H1711   1.110       .  S
C1706      H1712   1.111       .  S
C1713      C1714   1.405   1_554  A
C1713      C1718   1.418       .  A
C1713      H1720   1.084       .  S
C1714      C1715   1.418       .  A
C1715      C1716   1.413       .  A
C1715      C1722   1.508       .  S
C1716      C1717   1.409       .  A
C1716      H1721   1.084       .  S
C1717      C1718   1.426   1_556  A
C1718      C1719   1.507       .  S
C1719      H1723   1.111       .  S
C1719      H1724   1.110       .  S
C1719      H1725   1.109       .  S
C1722      H1726   1.110       .  S
C1722      H1727   1.109       .  S
C1722      H1728   1.111       .  S
C1729      C1730   1.394       .  A
C1729      C1734   1.396       .  A
C1729      H1736   1.085       .  S
C1730      C1731   1.409       .  A
C1731      C1732   1.395       .  A
C1731      C1738   1.509       .  S
C1732      C1733   1.401       .  A
C1732      H1737   1.084       .  S
C1733      C1734   1.418       .  A
C1734      C1735   1.507       .  S
C1735      H1739   1.110       .  S
C1735      H1740   1.109       .  S
C1735      H1741   1.111       .  S
C1738      H1742   1.110       .  S
C1738      H1743   1.110       .  S
C1738      H1744   1.111       .  S
C1745      C1746   1.404       .  A
C1745      C1750   1.397       .  A
C1745      H1752   1.084       .  S
C1746      C1747   1.411       .  A
C1747      C1748   1.399       .  A
C1747      C1754   1.508       .  S
C1748      C1749   1.401       .  A
C1748      H1753   1.085       .  S
C1749      C1750   1.405       .  A
C1750      C1751   1.507       .  S
C1751      H1755   1.111       .  S
C1751      H1756   1.110       .  S
C1751      H1757   1.110       .  S
C1754      H1758   1.110       .  S
C1754      H1759   1.109       .  S
C1754      H1760   1.111       .  S
C1761      C1762   1.410       .  A
C1761      C1766   1.419       .  A
C1761      H1768   1.084       .  S
C1762      C1763   1.422   1_556  A
C1763      C1764   1.421       .  A
C1763      C1770   1.506       .  S
C1764      C1765   1.408   1_554  A
C1764      H1769   1.084       .  S
C1765      C1766   1.422       .  A
C1766      C1767   1.508       .  S
C1767      H1771   1.111       .  S
C1767      H1772   1.110       .  S
C1767      H1773   1.110       .  S
C1770      H1774   1.110       .  S
C1770      H1775   1.110       .  S
C1770      H1776   1.111       .  S
C1777      C1778   1.403       .  A
C1777      C1782   1.395       .  A
C1777      H1784   1.085       .  S
C1778      C1779   1.414       .  A
C1779      C1780   1.406       .  A
C1779      C1786   1.506       .  S
C1780      C1781   1.404       .  A
C1780      H1785   1.084       .  S
C1781      C1782   1.413       .  A
C1782      C1783   1.511       .  S
C1783      H1787   1.111       .  S
C1783      H1788   1.110       .  S
C1783      H1789   1.109       .  S
C1786      H1790   1.110       .  S
C1786      H1791   1.110       .  S
C1786      H1792   1.111       .  S
C1793      C1794   1.401       .  A
C1793      C1798   1.404       .  A
C1793      H1800   1.084       .  S
C1794      C1795   1.409       .  A
C1795      C1796   1.402       .  A
C1795      C1802   1.507       .  S
C1796      C1797   1.401       .  A
C1796      H1801   1.084       .  S
C1797      C1798   1.412       .  A
C1798      C1799   1.507       .  S
C1799      H1803   1.111       .  S
C1799      H1804   1.110       .  S
C1799      H1805   1.111       .  S
C1802      H1806   1.111       .  S
C1802      H1807   1.110       .  S
C1802      H1808   1.111       .  S
C1809      C1810   1.410       .  A
C1809      C1814   1.422       .  A
C1809      H1816   1.083       .  S
C1810      C1811   1.420       .  A
C1811      C1812   1.409       .  A
C1811      C1818   1.510       .  S
C1812      C1813   1.406       .  A
C1812      H1817   1.084       .  S
C1813      C1814   1.419       .  A
C1814      C1815   1.504       .  S
C1815      H1819   1.111       .  S
C1815      H1820   1.110       .  S
C1815      H1821   1.110       .  S
C1818      H1822   1.110       .  S
C1818      H1823   1.108       .  S
C1818      H1824   1.111       .  S
C1825      C1826   1.412       .  A
C1825      C1830   1.423   1_545  A
C1825      H1832   1.083       .  S
C1826      C1827   1.428       .  A
C1827      C1828   1.425   1_545  A
C1827      C1834   1.507       .  S
C1828      C1829   1.414       .  A
C1828      H1833   1.083       .  S
C1829      C1830   1.429       .  A
C1830      C1831   1.507       .  S
C1831      H1835   1.111       .  S
C1831      H1836   1.110       .  S
C1831      H1837   1.110       .  S
C1834      H1838   1.110       .  S
C1834      H1839   1.110       .  S
C1834      H1840   1.111       .  S
C1841      C1842   1.408       .  A
C1841      C1846   1.392       .  A
C1841      H1848   1.084       .  S
C1842      C1843   1.416       .  A
C1843      C1844   1.399       .  A
C1843      C1850   1.509       .  S
C1844      C1845   1.400       .  A
C1844      H1849   1.085       .  S
C1845      C1846   1.404       .  A
C1846      C1847   1.509       .  S
C1847      H1851   1.111       .  S
C1847      H1852   1.109       .  S
C1847      H1853   1.110       .  S
C1850      H1854   1.109       .  S
C1850      H1855   1.110       .  S
C1850      H1856   1.111       .  S
C1857      C1858   1.398       .  A
C1857      C1862   1.398       .  A
C1857      H1864   1.085       .  S
C1858      C1859   1.400       .  A
C1859      C1860   1.392       .  A
C1859      C1866   1.508       .  S
C1860      C1861   1.412       .  A
C1860      H1865   1.084       .  S
C1861      C1862   1.417       .  A
C1862      C1863   1.508       .  S
C1863      H1867   1.111       .  S
C1863      H1868   1.110       .  S
C1863      H1869   1.110       .  S
C1866      H1870   1.110       .  S
C1866      H1871   1.110       .  S
C1866      H1872   1.111       .  S
C1873      C1874   1.402       .  A
C1873      C1878   1.400       .  A
C1873      H1880   1.084       .  S
C1874      C1875   1.414       .  A
C1875      C1876   1.404       .  A
C1875      C1882   1.508       .  S
C1876      C1877   1.402       .  A
C1876      H1881   1.084       .  S
C1877      C1878   1.410       .  A
C1878      C1879   1.507       .  S
C1879      H1883   1.111       .  S
C1879      H1884   1.110       .  S
C1879      H1885   1.110       .  S
C1882      H1886   1.110       .  S
C1882      H1887   1.109       .  S
C1882      H1888   1.111       .  S
C1889      C1890   1.403       .  A
C1889      C1894   1.414       .  A
C1889      H1896   1.084       .  S
C1890      C1891   1.415   1_565  A
C1891      C1892   1.419       .  A
C1891      C1898   1.506       .  S
C1892      C1893   1.415   1_545  A
C1892      H1897   1.083       .  S
C1893      C1894   1.429       .  A
C1894      C1895   1.509       .  S
C1895      H1899   1.111       .  S
C1895      H1900   1.110       .  S
C1895      H1901   1.110       .  S
C1898      H1902   1.111       .  S
C1898      H1903   1.110       .  S
C1898      H1904   1.111       .  S
C1905      C1906   1.411       .  A
C1905      C1910   1.394       .  A
C1905      H1912   1.084       .  S
C1906      C1907   1.417       .  A
C1907      C1908   1.397       .  A
C1907      C1914   1.509       .  S
C1908      C1909   1.398       .  A
C1908      H1913   1.085       .  S
C1909      C1910   1.400       .  A
C1910      C1911   1.507       .  S
C1911      H1915   1.111       .  S
C1911      H1916   1.110       .  S
C1911      H1917   1.110       .  S
C1914      H1918   1.110       .  S
C1914      H1919   1.110       .  S
C1914      H1920   1.111       .  S
C1921      C1922   1.400       .  A
C1921      C1926   1.396       .  A
C1921      H1928   1.085       .  S
C1922      C1923   1.403       .  A
C1923      C1924   1.393       .  A
C1923      C1930   1.508       .  S
C1924      C1925   1.409       .  A
C1924      H1929   1.084       .  S
C1925      C1926   1.415       .  A
C1926      C1927   1.509       .  S
C1927      H1931   1.111       .  S
C1927      H1932   1.109       .  S
C1927      H1933   1.110       .  S
C1930      H1934   1.109       .  S
C1930      H1935   1.110       .  S
C1930      H1936   1.111       .  S
C1937      C1938   1.407       .  A
C1937      C1942   1.403       .  A
C1937      H1944   1.084       .  S
C1938      C1939   1.416       .  A
C1939      C1940   1.400       .  A
C1939      C1946   1.510       .  S
C1940      C1941   1.406       .  A
C1940      H1945   1.084       .  S
C1941      C1942   1.416       .  A
C1942      C1943   1.508       .  S
C1943      H1947   1.111       .  S
C1943      H1948   1.110       .  S
C1943      H1949   1.110       .  S
C1946      H1950   1.109       .  S
C1946      H1951   1.111       .  S
C1946      H1952   1.111       .  S
C1953      C1954   1.417       .  A
C1953      C1958   1.431       .  A
C1953      H1960   1.083       .  S
C1954      C1955   1.428       .  A
C1955      C1956   1.416       .  A
C1955      C1962   1.510       .  S
C1956      C1957   1.411       .  A
C1956      H1961   1.083       .  S
C1957      C1958   1.426       .  A
C1958      C1959   1.505       .  S
C1959      H1963   1.111       .  S
C1959      H1964   1.110   1_565  S
C1959      H1965   1.110       .  S
C1962      H1966   1.110       .  S
C1962      H1967   1.111       .  S
C1962      H1968   1.111       .  S
C1969      C1970   1.401       .  A
C1969      C1974   1.398       .  A
C1969      H1976   1.084       .  S
C1970      C1971   1.412       .  A
C1971      C1972   1.405       .  A
C1971      C1978   1.506       .  S
C1972      C1973   1.403       .  A
C1972      H1977   1.084       .  S
C1973      C1974   1.411       .  A
C1974      C1975   1.509       .  S
C1975      H1979   1.111       .  S
C1975      H1980   1.110       .  S
C1975      H1981   1.109       .  S
C1978      H1982   1.110       .  S
C1978      H1983   1.110       .  S
C1978      H1984   1.111       .  S
C1985      C1986   1.400       .  A
C1985      C1990   1.400       .  A
C1985      H1992   1.084       .  S
C1986      C1987   1.414       .  A
C1987      C1988   1.401       .  A
C1987      C1994   1.507       .  S
C1988      C1989   1.399       .  A
C1988      H1993   1.084       .  S
C1989      C1990   1.411       .  A
C1990      C1991   1.507       .  S
C1991      H1995   1.111       .  S
C1991      H1996   1.110       .  S
C1991      H1997   1.110       .  S
C1994      H1998   1.110       .  S
C1994      H1999   1.108       .  S
C1994      H2000   1.111       .  S
C2001      C2002   1.409       .  A
C2001      C2006   1.415       .  A
C2001      H2008   1.083       .  S
C2002      C2003   1.427       .  A
C2003      C2004   1.423       .  A
C2003      C2010   1.506       .  S
C2004      C2005   1.411       .  A
C2004      H2009   1.083       .  S
C2005      C2006   1.428       .  A
C2006      C2007   1.510       .  S
C2007      H2011   1.111       .  S
C2007      H2012   1.111       .  S
C2007      H2013   1.110       .  S
C2010      H2014   1.110       .  S
C2010      H2015   1.110       .  S
C2010      H2016   1.111       .  S
C2017      C2018   1.409       .  A
C2017      C2022   1.418   1_545  A
C2017      H2024   1.084       .  S
C2018      C2019   1.423       .  A
C2019      C2020   1.430   1_545  A
C2019      C2026   1.505       .  S
C2020      C2021   1.416       .  A
C2020      H2025   1.083       .  S
C2021      C2022   1.425       .  A
C2022      C2023   1.508       .  S
C2023      H2027   1.111       .  S
C2023      H2028   1.110       .  S
C2023      H2029   1.110       .  S
C2026      H2030   1.110       .  S
C2026      H2031   1.110       .  S
C2026      H2032   1.111       .  S
C2033      C2034   1.396       .  A
C2033      C2038   1.395       .  A
C2033      H2040   1.084       .  S
C2034      C2035   1.413       .  A
C2035      C2036   1.395       .  A
C2035      C2042   1.509       .  S
C2036      C2037   1.396       .  A
C2036      H2041   1.085       .  S
C2037      C2038   1.411       .  A
C2038      C2039   1.509       .  S
C2039      H2043   1.111       .  S
C2039      H2044   1.110       .  S
C2039      H2045   1.111       .  S
C2042      H2046   1.110       .  S
C2042      H2047   1.111       .  S
C2042      H2048   1.111       .  S
C2049      C2050   1.397       .  A
C2049      C2054   1.394       .  A
C2049      H2056   1.085       .  S
C2050      C2051   1.408       .  A
C2051      C2052   1.399       .  A
C2051      C2058   1.507       .  S
C2052      C2053   1.406       .  A
C2052      H2057   1.084       .  S
C2053      C2054   1.419       .  A
C2054      C2055   1.510       .  S
C2055      H2059   1.111       .  S
C2055      H2060   1.110       .  S
C2055      H2061   1.110       .  S
C2058      H2062   1.110       .  S
C2058      H2063   1.110       .  S
C2058      H2064   1.111       .  S
C2065      C2066   1.405       .  A
C2065      C2070   1.403       .  A
C2065      H2072   1.084       .  S
C2066      C2067   1.416       .  A
C2067      C2068   1.403       .  A
C2067      C2074   1.507       .  S
C2068      C2069   1.403       .  A
C2068      H2073   1.084       .  S
C2069      C2070   1.415       .  A
C2070      C2071   1.508       .  S
C2071      H2075   1.111       .  S
C2071      H2076   1.110       .  S
C2071      H2077   1.111       .  S
C2074      H2078   1.109       .  S
C2074      H2079   1.109       .  S
C2074      H2080   1.111       .  S
C2081      C2082   1.411   1_545  A
C2081      C2086   1.417       .  A
C2081      H2088   1.083       .  S
C2082      C2083   1.425       .  A
C2083      C2084   1.411       .  A
C2083      C2090   1.510       .  S
C2084      C2085   1.409       .  A
C2084      H2089   1.083       .  S
C2085      C2086   1.423   1_565  A
C2086      C2087   1.507       .  S
C2087      H2091   1.111       .  S
C2087      H2092   1.110       .  S
C2087      H2093   1.110       .  S
C2090      H2094   1.110       .  S
C2090      H2095   1.110       .  S
C2090      H2096   1.111       .  S
C2097      C2098   1.400       .  A
C2097      C2102   1.395       .  A
C2097      H2104   1.084       .  S
C2098      C2099   1.418       .  A
C2099      C2100   1.396       .  A
C2099      C2106   1.507       .  S
C2100      C2101   1.394       .  A
C2100      H2105   1.085       .  S
C2101      C2102   1.411       .  A
C2102      C2103   1.508       .  S
C2103      H2107   1.111       .  S
C2103      H2108   1.109       .  S
C2103      H2109   1.110       .  S
C2106      H2110   1.111       .  S
C2106      H2111   1.110       .  S
C2106      H2112   1.110       .  S
C2113      C2114   1.397       .  A
C2113      C2118   1.398       .  A
C2113      H2120   1.084       .  S
C2114      C2115   1.415       .  A
C2115      C2116   1.393       .  A
C2115      C2122   1.511       .  S
C2116      C2117   1.399       .  A
C2116      H2121   1.084       .  S
C2117      C2118   1.417       .  A
C2118      C2119   1.508       .  S
C2119      H2123   1.111       .  S
C2119      H2124   1.110       .  S
C2119      H2125   1.106       .  S
C2122      H2126   1.109       .  S
C2122      H2127   1.110       .  S
C2122      H2128   1.111       .  S
C2129      C2130   1.401       .  A
C2129      C2134   1.399       .  A
C2129      H2136   1.085       .  S
C2130      C2131   1.412       .  A
C2131      C2132   1.404       .  A
C2131      C2138   1.507       .  S
C2132      C2133   1.404       .  A
C2132      H2137   1.084       .  S
C2133      C2134   1.413       .  A
C2134      C2135   1.509       .  S
C2135      H2139   1.111       .  S
C2135      H2140   1.109       .  S
C2135      H2141   1.110       .  S
C2138      H2142   1.111       .  S
C2138      H2143   1.110       .  S
C2138      H2144   1.111       .  S
C2145      C2146   1.408       .  A
C2145      C2150   1.418       .  A
C2145      H2152   1.084       .  S
C2146      C2147   1.423   1_545  A
C2147      C2148   1.423       .  A
C2147      C2154   1.506       .  S
C2148      C2149   1.411       .  A
C2148      H2153   1.084       .  S
C2149      C2150   1.427   1_565  A
C2150      C2151   1.509       .  S
C2151      H2155   1.111       .  S
C2151      H2156   1.109       .  S
C2151      H2157   1.110       .  S
C2154      H2158   1.109       .  S
C2154      H2159   1.110       .  S
C2154      H2160   1.111       .  S
C2161      C2162   1.403       .  A
C2161      C2166   1.407       .  A
C2161      H2168   1.084       .  S
C2162      C2163   1.413       .  A
C2163      C2164   1.395       .  A
C2163      C2170   1.508       .  S
C2164      C2165   1.400       .  A
C2164      H2169   1.085       .  S
C2165      C2166   1.415       .  A
C2166      C2167   1.506       .  S
C2167      H2171   1.111       .  S
C2167      H2172   1.110       .  S
C2167      H2173   1.110       .  S
C2170      H2174   1.108       .  S
C2170      H2175   1.111       .  S
C2170      H2176   1.110       .  S
C2177      C2178   1.407       .  A
C2177      C2182   1.414       .  A
C2177      H2184   1.084       .  S
C2178      C2179   1.421       .  A
C2179      C2180   1.426       .  A
C2179      C2186   1.504       .  S
C2180      C2181   1.411       .  A
C2180      H2185   1.083       .  S
C2181      C2182   1.422       .  A
C2182      C2183   1.509       .  S
C2183      H2187   1.111       .  S
C2183      H2188   1.108       .  S
C2183      H2189   1.111       .  S
C2186      H2190   1.110       .  S
C2186      H2191   1.110       .  S
C2186      H2192   1.111       .  S
C2193      C2194   1.403       .  A
C2193      C2198   1.399       .  A
C2193      H2200   1.085       .  S
C2194      C2195   1.413       .  A
C2195      C2196   1.401       .  A
C2195      C2202   1.507       .  S
C2196      C2197   1.399       .  A
C2196      H2201   1.084       .  S
C2197      C2198   1.409       .  A
C2198      C2199   1.508       .  S
C2199      H2203   1.111       .  S
C2199      H2204   1.110       .  S
C2199      H2205   1.110       .  S
C2202      H2206   1.110       .  S
C2202      H2207   1.110       .  S
C2202      H2208   1.111       .  S
C2209      C2210   1.412       .  A
C2209      C2214   1.425       .  A
C2209      H2216   1.083       .  S
C2210      C2211   1.424       .  A
C2211      C2212   1.408       .  A
C2211      C2218   1.511       .  S
C2212      C2213   1.406       .  A
C2212      H2217   1.084       .  S
C2213      C2214   1.421       .  A
C2214      C2215   1.504       .  S
C2215      H2219   1.111       .  S
C2215      H2220   1.110       .  S
C2215      H2221   1.110       .  S
C2218      H2222   1.110       .  S
C2218      H2223   1.109       .  S
C2218      H2224   1.111       .  S
C2225      C2226   1.412       .  A
C2225      C2230   1.421   1_455  A
C2225      H2232   1.083       .  S
C2226      C2227   1.425       .  A
C2227      C2228   1.424   1_455  A
C2227      C2234   1.507       .  S
C2228      C2229   1.414       .  A
C2228      H2233   1.083       .  S
C2229      C2230   1.427       .  A
C2230      C2231   1.508       .  S
C2231      H2235   1.111       .  S
C2231      H2236   1.110       .  S
C2231      H2237   1.110       .  S
C2234      H2238   1.110       .  S
C2234      H2239   1.110       .  S
C2234      H2240   1.111       .  S
C2241      C2242   1.397       .  A
C2241      C2246   1.395       .  A
C2241      H2248   1.085       .  S
C2242      C2243   1.412       .  A
C2243      C2244   1.394       .  A
C2243      C2250   1.509       .  S
C2244      C2245   1.404       .  A
C2244      H2249   1.084       .  S
C2245      C2246   1.420       .  A
C2246      C2247   1.510       .  S
C2247      H2251   1.111       .  S
C2247      H2252   1.109       .  S
C2247      H2253   1.110       .  S
C2250      H2254   1.108       .  S
C2250      H2255   1.110       .  S
C2250      H2256   1.111       .  S
C2257      C2258   1.410       .  A
C2257      C2262   1.396       .  A
C2257      H2264   1.084       .  S
C2258      C2259   1.415       .  A
C2259      C2260   1.396       .  A
C2259      C2266   1.509       .  S
C2260      C2261   1.404       .  A
C2260      H2265   1.085       .  S
C2261      C2262   1.406       .  A
C2262      C2263   1.508       .  S
C2263      H2267   1.111       .  S
C2263      H2268   1.108       .  S
C2263      H2269   1.110       .  S
C2266      H2270   1.110       .  S
C2266      H2271   1.110       .  S
C2266      H2272   1.111       .  S
C2273      C2274   1.402       .  A
C2273      C2278   1.404       .  A
C2273      H2280   1.084       .  S
C2274      C2275   1.412       .  A
C2275      C2276   1.397       .  A
C2275      C2282   1.509       .  S
C2276      C2277   1.402       .  A
C2276      H2281   1.085       .  S
C2277      C2278   1.412       .  A
C2278      C2279   1.506       .  S
C2279      H2283   1.111       .  S
C2279      H2284   1.110       .  S
C2279      H2285   1.110       .  S
C2282      H2286   1.108       .  S
C2282      H2287   1.110       .  S
C2282      H2288   1.111       .  S
C2289      C2290   1.401       .  A
C2289      C2294   1.401       .  A
C2289      H2296   1.085       .  S
C2290      C2291   1.409       .  A
C2291      C2292   1.397       .  A
C2291      C2298   1.508       .  S
C2292      C2293   1.401       .  A
C2292      H2297   1.085       .  S
C2293      C2294   1.410       .  A
C2294      C2295   1.505       .  S
C2295      H2299   1.111       .  S
C2295      H2300   1.109       .  S
C2295      H2301   1.110       .  S
C2298      H2302   1.110       .  S
C2298      H2303   1.110       .  S
C2298      H2304   1.111       .  S
C2305      C2306   1.407       .  A
C2305      C2310   1.413       .  A
C2305      H2312   1.084       .  S
C2306      C2307   1.418   1_455  A
C2307      C2308   1.418       .  A
C2307      C2314   1.506       .  S
C2308      C2309   1.408   1_655  A
C2308      H2313   1.084       .  S
C2309      C2310   1.418       .  A
C2310      C2311   1.507       .  S
C2311      H2315   1.111       .  S
C2311      H2316   1.109       .  S
C2311      H2317   1.111       .  S
C2314      H2318   1.111       .  S
C2314      H2319   1.110       .  S
C2314      H2320   1.111       .  S
C2321      C2322   1.399       .  A
C2321      C2326   1.397       .  A
C2321      H2328   1.085       .  S
C2322      C2323   1.412       .  A
C2323      C2324   1.396       .  A
C2323      C2330   1.509       .  S
C2324      C2325   1.402       .  A
C2324      H2329   1.085       .  S
C2325      C2326   1.417       .  A
C2326      C2327   1.509       .  S
C2327      H2331   1.111       .  S
C2327      H2332   1.110       .  S
C2327      H2333   1.110       .  S
C2330      H2334   1.110       .  S
C2330      H2335   1.111       .  S
C2330      H2336   1.111       .  S
C2337      C2338   1.393       .  A
C2337      C2342   1.399       .  A
C2337      H2344   1.085       .  S
C2338      C2339   1.410       .  A
C2339      C2340   1.399       .  A
C2339      C2346   1.508       .  S
C2340      C2341   1.403       .  A
C2340      H2345   1.084       .  S
C2341      C2342   1.424       .  A
C2342      C2343   1.510       .  S
C2343      H2347   1.111       .  S
C2343      H2348   1.109       .  S
C2343      H2349   1.110       .  S
C2346      H2350   1.110       .  S
C2346      H2351   1.110       .  S
C2346      H2352   1.111       .  S
C2353      C2354   1.408       .  A
C2353      C2358   1.404       .  A
C2353      H2360   1.084       .  S
C2354      C2355   1.421       .  A
C2355      C2356   1.398       .  A
C2355      C2362   1.510       .  S
C2356      C2357   1.397       .  A
C2356      H2361   1.085       .  S
C2357      C2358   1.409       .  A
C2358      C2359   1.506       .  S
C2359      H2363   1.111       .  S
C2359      H2364   1.110       .  S
C2359      H2365   1.110       .  S
C2362      H2366   1.109       .  S
C2362      H2367   1.110       .  S
C2362      H2368   1.111       .  S
C2369      C2370   1.404       .  A
C2369      C2374   1.398       .  A
C2369      H2376   1.084       .  S
C2370      C2371   1.415       .  A
C2371      C2372   1.404       .  A
C2371      C2378   1.507       .  S
C2372      C2373   1.404       .  A
C2372      H2377   1.084       .  S
C2373      C2374   1.414       .  A
C2374      C2375   1.510       .  S
C2375      H2379   1.111       .  S
C2375      H2380   1.109       .  S
C2375      H2381   1.111       .  S
C2378      H2382   1.110       .  S
C2378      H2383   1.110       .  S
C2378      H2384   1.111       .  S
C2385      C2386   1.410   1_655  A
C2385      C2390   1.422       .  A
C2385      H2392   1.084       .  S
C2386      C2387   1.422       .  A
C2387      C2388   1.418       .  A
C2387      C2394   1.508       .  S
C2388      C2389   1.409       .  A
C2388      H2393   1.083       .  S
C2389      C2390   1.421   1_455  A
C2390      C2391   1.505       .  S
C2391      H2395   1.111       .  S
C2391      H2396   1.109       .  S
C2391      H2397   1.110       .  S
C2394      H2398   1.109       .  S
C2394      H2399   1.110       .  S
C2394      H2400   1.111       .  S
C2401      C2402   1.403       .  A
C2401      C2406   1.407       .  A
C2401      H2408   1.084       .  S
C2402      C2403   1.412       .  A
C2403      C2404   1.394       .  A
C2403      C2410   1.511       .  S
C2404      C2405   1.407       .  A
C2404      H2409   1.083       .  S
C2405      C2406   1.421       .  A
C2406      C2407   1.507       .  S
C2407      H2411   1.111       .  S
C2407      H2412   1.110       .  S
C2407      H2413   1.110       .  S
C2410      H2414   1.108       .  S
C2410      H2415   1.109       .  S
C2410      H2416   1.111       .  S
C2417      C2418   1.407       .  A
C2417      C2422   1.404       .  A
C2417      H2424   1.084       .  S
C2418      C2419   1.420       .  A
C2419      C2420   1.400       .  A
C2419      C2426   1.510       .  S
C2420      C2421   1.397       .  A
C2420      H2425   1.085       .  S
C2421      C2422   1.408       .  A
C2422      C2423   1.506       .  S
C2423      H2427   1.111       .  S
C2423      H2428   1.110       .  S
C2423      H2429   1.110       .  S
C2426      H2430   1.109       .  S
C2426      H2431   1.110       .  S
C2426      H2432   1.111       .  S
C2433      C2434   1.408       .  A
C2433      C2438   1.420       .  A
C2433      H2440   1.084       .  S
C2434      C2435   1.422       .  A
C2435      C2436   1.414       .  A
C2435      C2442   1.509       .  S
C2436      C2437   1.410       .  A
C2436      H2441   1.084       .  S
C2437      C2438   1.423       .  A
C2438      C2439   1.506       .  S
C2439      H2443   1.111       .  S
C2439      H2444   1.109       .  S
C2439      H2445   1.110       .  S
C2442      H2446   1.109       .  S
C2442      H2447   1.110       .  S
C2442      H2448   1.111       .  S
C2449      C2450   1.409       .  A
C2449      C2454   1.422   1_554  A
C2449      H2456   1.084       .  S
C2450      C2451   1.422       .  A
C2451      C2452   1.420   1_554  A
C2451      C2458   1.508       .  S
C2452      C2453   1.411       .  A
C2452      H2457   1.084       .  S
C2453      C2454   1.424       .  A
C2454      C2455   1.507       .  S
C2455      H2459   1.111       .  S
C2455      H2460   1.109       .  S
C2455      H2461   1.110       .  S
C2458      H2462   1.109       .  S
C2458      H2463   1.110       .  S
C2458      H2464   1.111       .  S
C2465      C2466   1.399       .  A
C2465      C2470   1.393       .  A
C2465      H2472   1.085       .  S
C2466      C2467   1.414       .  A
C2467      C2468   1.400       .  A
C2467      C2474   1.508       .  S
C2468      C2469   1.397       .  A
C2468      H2473   1.084       .  S
C2469      C2470   1.410       .  A
C2470      C2471   1.510       .  S
C2471      H2475   1.111       .  S
C2471      H2476   1.111       .  S
C2471      H2477   1.110       .  S
C2474      H2478   1.110       .  S
C2474      H2479   1.110       .  S
C2474      H2480   1.111       .  S
C2481      C2482   1.392       .  A
C2481      C2486   1.393       .  A
C2481      H2488   1.085       .  S
C2482      C2483   1.408       .  A
C2483      C2484   1.397       .  A
C2483      C2490   1.508       .  S
C2484      C2485   1.405       .  A
C2484      H2489   1.084       .  S
C2485      C2486   1.425       .  A
C2486      C2487   1.512       .  S
C2487      H2491   1.111       .  S
C2487      H2492   1.110       .  S
C2487      H2493   1.110       .  S
C2490      H2494   1.110       .  S
C2490      H2495   1.111       .  S
C2490      H2496   1.111       .  S
C2497      C2498   1.406       .  A
C2497      C2502   1.398       .  A
C2497      H2504   1.084       .  S
C2498      C2499   1.420       .  A
C2499      C2500   1.405       .  A
C2499      C2506   1.508       .  S
C2500      C2501   1.401       .  A
C2500      H2505   1.084       .  S
C2501      C2502   1.412       .  A
C2502      C2503   1.509       .  S
C2503      H2507   1.111       .  S
C2503      H2508   1.108       .  S
C2503      H2509   1.108       .  S
C2506      H2510   1.110       .  S
C2506      H2511   1.110       .  S
C2506      H2512   1.111       .  S
C2513      C2514   1.410   1_556  A
C2513      C2518   1.416       .  A
C2513      H2520   1.083       .  S
C2514      C2515   1.423       .  A
C2515      C2516   1.415       .  A
C2515      C2522   1.508       .  S
C2516      C2517   1.411       .  A
C2516      H2521   1.083       .  S
C2517      C2518   1.424   1_554  A
C2518      C2519   1.508       .  S
C2519      H2523   1.111       .  S
C2519      H2524   1.110       .  S
C2519      H2525   1.110       .  S
C2522      H2526   1.111       .  S
C2522      H2527   1.110       .  S
C2522      H2528   1.111       .  S
C2529      C2530   1.398       .  A
C2529      C2534   1.396       .  A
C2529      H2536   1.084       .  S
C2530      C2531   1.413       .  A
C2531      C2532   1.395       .  A
C2531      C2538   1.509       .  S
C2532      C2533   1.397       .  A
C2532      H2537   1.085       .  S
C2533      C2534   1.412       .  A
C2534      C2535   1.507       .  S
C2535      H2539   1.111       .  S
C2535      H2540   1.108       .  S
C2535      H2541   1.110       .  S
C2538      H2542   1.110       .  S
C2538      H2543   1.111       .  S
C2538      H2544   1.111       .  S
C2545      C2546   1.394       .  A
C2545      C2550   1.397       .  A
C2545      H2552   1.084       .  S
C2546      C2547   1.410       .  A
C2547      C2548   1.396       .  A
C2547      C2554   1.508       .  S
C2548      C2549   1.401       .  A
C2548      H2553   1.084       .  S
C2549      C2550   1.418       .  A
C2550      C2551   1.507       .  S
C2551      H2555   1.110       .  S
C2551      H2556   1.110       .  S
C2551      H2557   1.109       .  S
C2554      H2558   1.109       .  S
C2554      H2559   1.110       .  S
C2554      H2560   1.111       .  S
C2561      C2562   1.411       .  A
C2561      C2566   1.408       .  A
C2561      H2568   1.083       .  S
C2562      C2563   1.424       .  A
C2563      C2564   1.398       .  A
C2563      C2570   1.509       .  S
C2564      C2565   1.396       .  A
C2564      H2569   1.085       .  S
C2565      C2566   1.408       .  A
C2566      C2567   1.506       .  S
C2567      H2571   1.111       .  S
C2567      H2572   1.110       .  S
C2567      H2573   1.111       .  S
C2570      H2574   1.107       .  S
C2570      H2575   1.109       .  S
C2570      H2576   1.111       .  S
C2577      C2578   1.414       .  A
C2577      C2582   1.426       .  A
C2577      H2584   1.083       .  S
C2578      C2579   1.429       .  A
C2579      C2580   1.416       .  A
C2579      C2586   1.510       .  S
C2580      C2581   1.411       .  A
C2580      H2585   1.083       .  S
C2581      C2582   1.425       .  A
C2582      C2583   1.505       .  S
C2583      H2587   1.111   1_554  S
C2583      H2588   1.110   1_554  S
C2583      H2589   1.110       .  S
C2586      H2590   1.110   1_554  S
C2586      H2591   1.110       .  S
C2586      H2592   1.111       .  S
C2593      C2594   1.400       .  A
C2593      C2598   1.401       .  A
C2593      H2600   1.084       .  S
C2594      C2595   1.411       .  A
C2595      C2596   1.401       .  A
C2595      C2602   1.507       .  S
C2596      C2597   1.399       .  A
C2596      H2601   1.084       .  S
C2597      C2598   1.411       .  A
C2598      C2599   1.506       .  S
C2599      H2603   1.111       .  S
C2599      H2604   1.110       .  S
C2599      H2605   1.110       .  S
C2602      H2606   1.110       .  S
C2602      H2607   1.110       .  S
C2602      H2608   1.111       .  S
C2609      C2610   1.411       .  A
C2609      C2614   1.406       .  A
C2609      H2616   1.083       .  S
C2610      C2611   1.424       .  A
C2611      C2612   1.399       .  A
C2611      C2618   1.510       .  S
C2612      C2613   1.399       .  A
C2612      H2617   1.085       .  S
C2613      C2614   1.409       .  A
C2614      C2615   1.506       .  S
C2615      H2619   1.111       .  S
C2615      H2620   1.110       .  S
C2615      H2621   1.110       .  S
C2618      H2622   1.108       .  S
C2618      H2623   1.110       .  S
C2618      H2624   1.111       .  S
C2625      C2626   1.405       .  A
C2625      C2630   1.404       .  A
C2625      H2632   1.084       .  S
C2626      C2627   1.414       .  A
C2627      C2628   1.398       .  A
C2627      C2634   1.508       .  S
C2628      C2629   1.402       .  A
C2628      H2633   1.084       .  S
C2629      C2630   1.413       .  A
C2630      C2631   1.508       .  S
C2631      H2635   1.111       .  S
C2631      H2636   1.108       .  S
C2631      H2637   1.111       .  S
C2634      H2638   1.109       .  S
C2634      H2639   1.110       .  S
C2634      H2640   1.111       .  S
C2641      C2642   1.400       .  A
C2641      C2646   1.403       .  A
C2641      H2648   1.085       .  S
C2642      C2643   1.408       .  A
C2643      C2644   1.401       .  A
C2643      C2650   1.507       .  S
C2644      C2645   1.405       .  A
C2644      H2649   1.084       .  S
C2645      C2646   1.416       .  A
C2646      C2647   1.507       .  S
C2647      H2651   1.111       .  S
C2647      H2652   1.109       .  S
C2647      H2653   1.110       .  S
C2650      H2654   1.110       .  S
C2650      H2655   1.110       .  S
C2650      H2656   1.111       .  S
C2657      C2658   1.410       .  A
C2657      C2662   1.412       .  A
C2657      H2664   1.083       .  S
C2658      C2659   1.425       .  A
C2659      C2660   1.420       .  A
C2659      C2666   1.507       .  S
C2660      C2661   1.407       .  A
C2660      H2665   1.084       .  S
C2661      C2662   1.417       .  A
C2662      C2663   1.508       .  S
C2663      H2667   1.111       .  S
C2663      H2668   1.110       .  S
C2663      H2669   1.109       .  S
C2666      H2670   1.110       .  S
C2666      H2671   1.109       .  S
C2666      H2672   1.111       .  S
C2673      C2674   1.413       .  A
C2673      C2678   1.418   1_554  A
C2673      H2680   1.084       .  S
C2674      C2675   1.424       .  A
C2675      C2676   1.425   1_554  A
C2675      C2682   1.505       .  S
C2676      C2677   1.410       .  A
C2676      H2681   1.084       .  S
C2677      C2678   1.418       .  A
C2678      C2679   1.508       .  S
C2679      H2683   1.111       .  S
C2679      H2684   1.110       .  S
C2679      H2685   1.111       .  S
C2682      H2686   1.110       .  S
C2682      H2687   1.110       .  S
C2682      H2688   1.111       .  S
C2689      C2690   1.399       .  A
C2689      C2694   1.396       .  A
C2689      H2696   1.084       .  S
C2690      C2691   1.413       .  A
C2691      C2692   1.398       .  A
C2691      C2698   1.509       .  S
C2692      C2693   1.397       .  A
C2692      H2697   1.084       .  S
C2693      C2694   1.409       .  A
C2694      C2695   1.508       .  S
C2695      H2699   1.111       .  S
C2695      H2700   1.111       .  S
C2695      H2701   1.110       .  S
C2698      H2702   1.111       .  S
C2698      H2703   1.110       .  S
C2698      H2704   1.111       .  S
C2705      C2706   1.398       .  A
C2705      C2710   1.399       .  A
C2705      H2712   1.085       .  S
C2706      C2707   1.399       .  A
C2707      C2708   1.392       .  A
C2707      C2714   1.508       .  S
C2708      C2709   1.413       .  A
C2708      H2713   1.084       .  S
C2709      C2710   1.418       .  A
C2710      C2711   1.508       .  S
C2711      H2715   1.111       .  S
C2711      H2716   1.109       .  S
C2711      H2717   1.110       .  S
C2714      H2718   1.110       .  S
C2714      H2719   1.111       .  S
C2714      H2720   1.111       .  S
C2721      C2722   1.402       .  A
C2721      C2726   1.400       .  A
C2721      H2728   1.085       .  S
C2722      C2723   1.411       .  A
C2723      C2724   1.394       .  A
C2723      C2730   1.500       .  S
C2724      C2725   1.397       .  A
C2724      H2729   1.085       .  S
C2725      C2726   1.413       .  A
C2726      C2727   1.508       .  S
C2727      H2731   1.111       .  S
C2727      H2732   1.111       .  S
C2727      H2733   1.110       .  S
C2730      H2734   1.108       .  S
C2730      H2735   1.109       .  S
C2730      H2736   1.111       .  S
C2737      C2738   1.411       .  A
C2737      C2742   1.416       .  A
C2737      H2744   1.083       .  S
C2738      C2739   1.424   1_554  A
C2739      C2740   1.417       .  A
C2739      C2746   1.508       .  S
C2740      C2741   1.412   1_556  A
C2740      H2745   1.083       .  S
C2741      C2742   1.424       .  A
C2742      C2743   1.508       .  S
C2743      H2747   1.111       .  S
C2743      H2748   1.110       .  S
C2743      H2749   1.110       .  S
C2746      H2750   1.110       .  S
C2746      H2751   1.110       .  S
C2746      H2752   1.111       .  S
C2753      C2754   1.400       .  A
C2753      C2758   1.393       .  A
C2753      H2760   1.084       .  S
C2754      C2755   1.420       .  A
C2755      C2756   1.395       .  A
C2755      C2762   1.510       .  S
C2756      C2757   1.396       .  A
C2756      H2761   1.085       .  S
C2757      C2758   1.410       .  A
C2758      C2759   1.508       .  S
C2759      H2763   1.111       .  S
C2759      H2764   1.109       .  S
C2759      H2765   1.111       .  S
C2762      H2766   1.110       .  S
C2762      H2767   1.109       .  S
C2762      H2768   1.111       .  S
C2769      C2770   1.409       .  A
C2769      C2774   1.394       .  A
C2769      H2776   1.084       .  S
C2770      C2771   1.414       .  A
C2771      C2772   1.395       .  A
C2771      C2778   1.509       .  S
C2772      C2773   1.405       .  A
C2772      H2777   1.084       .  S
C2773      C2774   1.408       .  A
C2774      C2775   1.509       .  S
C2775      H2779   1.111       .  S
C2775      H2780   1.110       .  S
C2775      H2781   1.108       .  S
C2778      H2782   1.111       .  S
C2778      H2783   1.109       .  S
C2778      H2784   1.111       .  S
C2785      C2786   1.400       .  A
C2785      C2790   1.403       .  A
C2785      H2792   1.084       .  S
C2786      C2787   1.408       .  A
C2787      C2788   1.397       .  A
C2787      C2794   1.503       .  S
C2788      C2789   1.402       .  A
C2788      H2793   1.084       .  S
C2789      C2790   1.417       .  A
C2790      C2791   1.508       .  S
C2791      H2795   1.111       .  S
C2791      H2796   1.110       .  S
C2791      H2797   1.111       .  S
C2794      H2798   1.111       .  S
C2794      H2799   1.109       .  S
C2794      H2800   1.111       .  S
C2801      C2802   1.413   1_556  A
C2801      C2806   1.425       .  A
C2801      H2808   1.083       .  S
C2802      C2803   1.421       .  A
C2803      C2804   1.413       .  A
C2803      C2810   1.509       .  S
C2804      C2805   1.407       .  A
C2804      H2809   1.084       .  S
C2805      C2806   1.420   1_554  A
C2806      C2807   1.504       .  S
C2807      H2811   1.111       .  S
C2807      H2812   1.110       .  S
C2807      H2813   1.110       .  S
C2810      H2814   1.108       .  S
C2810      H2815   1.111       .  S
C2810      H2816   1.111       .  S
C2817      C2818   1.408       .  A
C2817      C2822   1.425       .  A
C2817      H2824   1.084       .  S
C2818      C2819   1.418   1_556  A
C2819      C2820   1.421       .  A
C2819      C2826   1.507       .  S
C2820      C2821   1.414   1_554  A
C2820      H2825   1.083       .  S
C2821      C2822   1.427       .  A
C2822      C2823   1.506       .  S
C2823      H2827   1.111       .  S
C2823      H2828   1.110       .  S
C2823      H2829   1.110       .  S
C2826      H2830   1.111       .  S
C2826      H2831   1.109       .  S
C2826      H2832   1.111       .  S
C2833      C2834   1.400       .  A
C2833      C2838   1.399       .  A
C2833      H2840   1.085       .  S
C2834      C2835   1.412       .  A
C2835      C2836   1.407       .  A
C2835      C2842   1.506       .  S
C2836      C2837   1.404       .  A
C2836      H2841   1.084       .  S
C2837      C2838   1.413       .  A
C2838      C2839   1.508       .  S
C2839      H2843   1.111       .  S
C2839      H2844   1.109       .  S
C2839      H2845   1.110       .  S
C2842      H2846   1.111       .  S
C2842      H2847   1.110       .  S
C2842      H2848   1.111       .  S
C2849      C2850   1.402       .  A
C2849      C2854   1.399       .  A
C2849      H2856   1.085       .  S
C2850      C2851   1.412       .  A
C2851      C2852   1.405       .  A
C2851      C2858   1.506       .  S
C2852      C2853   1.402       .  A
C2852      H2857   1.084       .  S
C2853      C2854   1.411       .  A
C2854      C2855   1.508       .  S
C2855      H2859   1.111       .  S
C2855      H2860   1.109       .  S
C2855      H2861   1.110       .  S
C2858      H2862   1.111       .  S
C2858      H2863   1.110       .  S
C2858      H2864   1.111       .  S
C2865      C2866   1.414       .  A
C2865      C2870   1.428       .  A
C2865      H2872   1.083       .  S
C2866      C2867   1.424       .  A
C2867      C2868   1.411       .  A
C2867      C2874   1.511       .  S
C2868      C2869   1.406       .  A
C2868      H2873   1.084       .  S
C2869      C2870   1.420       .  A
C2870      C2871   1.504       .  S
C2871      H2875   1.111       .  S
C2871      H2876   1.110       .  S
C2871      H2877   1.110       .  S
C2874      H2878   1.110       .  S
C2874      H2879   1.109       .  S
C2874      H2880   1.111       .  S
C2881      C2882   1.411       .  A
C2881      C2886   1.403       .  A
C2881      H2888   1.083       .  S
C2882      C2883   1.424       .  A
C2883      C2884   1.396       .  A
C2883      C2890   1.511       .  S
C2884      C2885   1.397       .  A
C2884      H2889   1.085       .  S
C2885      C2886   1.407       .  A
C2886      C2887   1.506       .  S
C2887      H2891   1.111       .  S
C2887      H2892   1.110       .  S
C2887      H2893   1.110       .  S
C2890      H2894   1.110       .  S
C2890      H2895   1.108       .  S
C2890      H2896   1.111       .  S
C2897      C2898   1.404       .  A
C2897      C2902   1.407       .  A
C2897      H2904   1.084       .  S
C2898      C2899   1.415       .  A
C2899      C2900   1.397       .  A
C2899      C2906   1.511       .  S
C2900      C2901   1.401       .  A
C2900      H2905   1.085       .  S
C2901      C2902   1.414       .  A
C2902      C2903   1.507       .  S
C2903      H2907   1.111       .  S
C2903      H2908   1.111       .  S
C2903      H2909   1.110       .  S
C2906      H2910   1.109       .  S
C2906      H2911   1.110       .  S
C2906      H2912   1.111       .  S
C2913      C2914   1.407       .  A
C2913      C2918   1.412       .  A
C2913      H2920   1.084       .  S
C2914      C2915   1.416       .  A
C2915      C2916   1.419       .  A
C2915      C2922   1.505       .  S
C2916      C2917   1.413       .  A
C2916      H2921   1.084       .  S
C2917      C2918   1.421       .  A
C2918      C2919   1.509       .  S
C2919      H2923   1.111       .  S
C2919      H2924   1.111       .  S
C2919      H2925   1.110       .  S
C2922      H2926   1.110       .  S
C2922      H2927   1.110       .  S
C2922      H2928   1.111       .  S
C2929      C2930   1.412       .  A
C2929      C2934   1.421   1_565  A
C2929      H2936   1.083       .  S
C2930      C2931   1.427       .  A
C2931      C2932   1.422   1_565  A
C2931      C2938   1.506       .  S
C2932      C2933   1.412       .  A
C2932      H2937   1.083       .  S
C2933      C2934   1.427       .  A
C2934      C2935   1.507       .  S
C2935      H2939   1.111       .  S
C2935      H2940   1.110       .  S
C2935      H2941   1.110       .  S
C2938      H2942   1.109       .  S
C2938      H2943   1.110       .  S
C2938      H2944   1.111       .  S
C2945      C2946   1.393       .  A
C2945      C2950   1.397       .  A
C2945      H2952   1.084       .  S
C2946      C2947   1.410       .  A
C2947      C2948   1.394       .  A
C2947      C2954   1.509       .  S
C2948      C2949   1.400       .  A
C2948      H2953   1.084       .  S
C2949      C2950   1.420       .  A
C2950      C2951   1.510       .  S
C2951      H2955   1.111       .  S
C2951      H2956   1.108       .  S
C2951      H2957   1.110       .  S
C2954      H2958   1.109       .  S
C2954      H2959   1.110       .  S
C2954      H2960   1.111       .  S
C2961      C2962   1.396       .  A
C2961      C2966   1.397       .  A
C2961      H2968   1.085       .  S
C2962      C2963   1.409       .  A
C2963      C2964   1.396       .  A
C2963      C2970   1.509       .  S
C2964      C2965   1.404       .  A
C2964      H2969   1.084       .  S
C2965      C2966   1.423       .  A
C2966      C2967   1.510       .  S
C2967      H2971   1.111       .  S
C2967      H2972   1.110       .  S
C2967      H2973   1.108       .  S
C2970      H2974   1.110       .  S
C2970      H2975   1.111       .  S
C2970      H2976   1.111       .  S
C2977      C2978   1.406       .  A
C2977      C2982   1.398       .  A
C2977      H2984   1.084       .  S
C2978      C2979   1.417       .  A
C2979      C2980   1.400       .  A
C2979      C2986   1.508       .  S
C2980      C2981   1.398       .  A
C2980      H2985   1.085       .  S
C2981      C2982   1.406       .  A
C2982      C2983   1.507       .  S
C2983      H2987   1.111       .  S
C2983      H2988   1.111       .  S
C2983      H2989   1.110       .  S
C2986      H2990   1.110       .  S
C2986      H2991   1.111       .  S
C2986      H2992   1.111       .  S
C2993      C2994   1.407       .  A
C2993      C2998   1.394       .  A
C2993      H3000   1.084       .  S
C2994      C2995   1.422       .  A
C2995      C2996   1.407       .  A
C2995      C3002   1.507       .  S
C2996      C2997   1.400       .  A
C2996      H3001   1.084       .  S
C2997      C2998   1.411       .  A
C2998      C2999   1.509       .  S
C2999      H3003   1.111       .  S
C2999      H3004   1.109       .  S
C2999      H3005   1.105       .  S
C3002      H3006   1.110       .  S
C3002      H3007   1.110       .  S
C3002      H3008   1.111       .  S
C3009      C3010   1.408   1_565  A
C3009      C3014   1.414       .  A
C3009      H3016   1.083       .  S
C3010      C3011   1.424       .  A
C3011      C3012   1.419       .  A
C3011      C3018   1.507       .  S
C3012      C3013   1.410       .  A
C3012      H3017   1.083       .  S
C3013      C3014   1.428   1_545  A
C3014      C3015   1.510       .  S
C3015      H3019   1.111       .  S
C3015      H3020   1.110       .  S
C3015      H3021   1.110       .  S
C3018      H3022   1.109       .  S
C3018      H3023   1.110       .  S
C3018      H3024   1.111       .  S
C3025      C3026   1.394       .  A
C3025      C3030   1.394       .  A
C3025      H3032   1.085       .  S
C3026      C3027   1.409       .  A
C3027      C3028   1.397       .  A
C3027      C3034   1.508       .  S
C3028      C3029   1.405       .  A
C3028      H3033   1.084       .  S
C3029      C3030   1.422       .  A
C3030      C3031   1.510       .  S
C3031      H3035   1.111       .  S
C3031      H3036   1.110       .  S
C3031      H3037   1.109       .  S
C3034      H3038   1.110       .  S
C3034      H3039   1.110       .  S
C3034      H3040   1.111       .  S
C3041      C3042   1.403       .  A
C3041      C3046   1.395       .  A
C3041      H3048   1.084       .  S
C3042      C3043   1.423       .  A
C3043      C3044   1.397       .  A
C3043      C3050   1.510       .  S
C3044      C3045   1.392       .  A
C3044      H3049   1.084       .  S
C3045      C3046   1.408       .  A
C3046      C3047   1.509       .  S
C3047      H3051   1.111       .  S
C3047      H3052   1.109       .  S
C3047      H3053   1.110       .  S
C3050      H3054   1.109       .  S
C3050      H3055   1.110       .  S
C3050      H3056   1.111       .  S
C3057      C3058   1.399       .  A
C3057      C3062   1.398       .  A
C3057      H3064   1.085       .  S
C3058      C3059   1.415       .  A
C3059      C3060   1.403       .  A
C3059      C3066   1.508       .  S
C3060      C3061   1.404       .  A
C3060      H3065   1.084       .  S
C3061      C3062   1.416       .  A
C3062      C3063   1.501       .  S
C3063      H3067   1.111       .  S
C3063      H3068   1.105       .  S
C3063      H3069   1.108       .  S
C3066      H3070   1.110       .  S
C3066      H3071   1.111       .  S
C3066      H3072   1.111       .  S
C3073      C3074   1.406       .  A
C3073      C3078   1.405       .  A
C3073      H3080   1.084       .  S
C3074      C3075   1.414       .  A
C3075      C3076   1.400       .  A
C3075      C3082   1.510       .  S
C3076      C3077   1.406       .  A
C3076      H3081   1.084       .  S
C3077      C3078   1.415       .  A
C3078      C3079   1.508       .  S
C3079      H3083   1.111       .  S
C3079      H3084   1.110       .  S
C3079      H3085   1.110       .  S
C3082      H3086   1.111       .  S
C3082      H3087   1.109       .  S
C3082      H3088   1.111       .  S
C3089      C3090   1.412       .  A
C3089      C3094   1.413       .  A
C3089      H3096   1.083       .  S
C3090      C3091   1.428   1_565  A
C3091      C3092   1.417       .  A
C3091      C3098   1.508       .  S
C3092      C3093   1.405   1_545  A
C3092      H3097   1.084       .  S
C3093      C3094   1.414       .  A
C3094      C3095   1.507       .  S
C3095      H3099   1.111       .  S
C3095      H3100   1.110       .  S
C3095      H3101   1.109       .  S
C3098      H3102   1.110       .  S
C3098      H3103   1.110       .  S
C3098      H3104   1.111       .  S
C3105      C3106   1.413   1_545  A
C3105      C3110   1.428       .  A
C3105      H3112   1.083       .  S
C3106      C3107   1.428       .  A
C3107      C3108   1.418       .  A
C3107      C3114   1.510       .  S
C3108      C3109   1.410       .  A
C3108      H3113   1.083       .  S
C3109      C3110   1.426   1_565  A
C3110      C3111   1.505       .  S
C3111      H3115   1.111       .  S
C3111      H3116   1.110   1_545  S
C3111      H3117   1.110       .  S
C3114      H3118   1.109       .  S
C3114      H3119   1.109       .  S
C3114      H3120   1.111       .  S
C3121      C3122   1.401       .  A
C3121      C3126   1.406       .  A
C3121      H3128   1.084       .  S
C3122      C3123   1.409       .  A
C3123      C3124   1.399       .  A
C3123      C3130   1.508       .  S
C3124      C3125   1.403       .  A
C3124      H3129   1.085       .  S
C3125      C3126   1.415       .  A
C3126      C3127   1.507       .  S
C3127      H3131   1.111       .  S
C3127      H3132   1.110       .  S
C3127      H3133   1.110       .  S
C3130      H3134   1.111       .  S
C3130      H3135   1.110       .  S
C3130      H3136   1.111       .  S
C3137      C3138   1.404       .  A
C3137      C3142   1.400       .  A
C3137      H3144   1.084       .  S
C3138      C3139   1.419       .  A
C3139      C3140   1.403       .  A
C3139      C3146   1.509       .  S
C3140      C3141   1.404       .  A
C3140      H3145   1.084       .  S
C3141      C3142   1.419       .  A
C3142      C3143   1.510       .  S
C3143      H3147   1.111       .  S
C3143      H3148   1.110       .  S
C3143      H3149   1.109       .  S
C3146      H3150   1.110       .  S
C3146      H3151   1.110       .  S
C3146      H3152   1.111       .  S
C3153      C3154   1.414       .  A
C3153      C3158   1.418       .  A
C3153      H3160   1.083       .  S
C3154      C3155   1.426       .  A
C3155      C3156   1.413       .  A
C3155      C3162   1.508       .  S
C3156      C3157   1.404       .  A
C3156      H3161   1.084       .  S
C3157      C3158   1.414       .  A
C3158      C3159   1.505       .  S
C3159      H3163   1.111       .  S
C3159      H3164   1.110       .  S
C3159      H3165   1.110       .  S
C3162      H3166   1.110       .  S
C3162      H3167   1.110       .  S
C3162      H3168   1.111       .  S
C3169      C3170   1.401       .  A
C3169      C3174   1.398       .  A
C3169      H3176   1.085       .  S
C3170      C3171   1.413       .  A
C3171      C3172   1.407       .  A
C3171      C3178   1.506       .  S
C3172      C3173   1.404       .  A
C3172      H3177   1.084       .  S
C3173      C3174   1.414       .  A
C3174      C3175   1.510       .  S
C3175      H3179   1.111       .  S
C3175      H3180   1.109       .  S
C3175      H3181   1.108       .  S
C3178      H3182   1.110       .  S
C3178      H3183   1.110       .  S
C3178      H3184   1.111       .  S
C3185      C3186   1.401       .  A
C3185      C3190   1.398       .  A
C3185      H3192   1.085       .  S
C3186      C3187   1.414       .  A
C3187      C3188   1.405       .  A
C3187      C3194   1.507       .  S
C3188      C3189   1.404       .  A
C3188      H3193   1.084       .  S
C3189      C3190   1.415       .  A
C3190      C3191   1.509       .  S
C3191      H3195   1.111       .  S
C3191      H3196   1.110       .  S
C3191      H3197   1.109       .  S
C3194      H3198   1.110       .  S
C3194      H3199   1.111       .  S
C3194      H3200   1.111       .  S
C3201      C3202   1.406       .  A
C3201      C3206   1.414       .  A
C3201      H3208   1.084       .  S
C3202      C3203   1.418       .  A
C3203      C3204   1.421       .  A
C3203      C3210   1.505       .  S
C3204      C3205   1.414       .  A
C3204      H3209   1.083       .  S
C3205      C3206   1.426       .  A
C3206      C3207   1.509       .  S
C3207      H3211   1.111       .  S
C3207      H3212   1.110       .  S
C3207      H3213   1.110       .  S
C3210      H3214   1.110       .  S
C3210      H3215   1.111       .  S
C3210      H3216   1.111       .  S
C3217      C3218   1.407       .  A
C3217      C3222   1.425   1_455  A
C3217      H3224   1.084       .  S
C3218      C3219   1.416       .  A
C3219      C3220   1.418   1_455  A
C3219      C3226   1.508       .  S
C3220      C3221   1.416       .  A
C3220      H3225   1.083       .  S
C3221      C3222   1.428       .  A
C3222      C3223   1.505       .  S
C3223      H3227   1.111       .  S
C3223      H3228   1.110       .  S
C3223      H3229   1.110       .  S
C3226      H3230   1.111       .  S
C3226      H3231   1.110       .  S
C3226      H3232   1.111       .  S
C3233      C3234   1.398       .  A
C3233      C3238   1.392       .  A
C3233      H3240   1.090       .  S
C3234      C3235   1.420       .  A
C3235      C3236   1.394       .  A
C3235      C3242   1.510       .  S
C3236      C3237   1.396       .  A
C3236      H3241   1.090       .  S
C3237      C3238   1.419       .  A
C3238      C3239   1.510       .  S
C3239      H3243   1.111       .  S
C3239      H3244   1.110       .  S
C3239      H3245   1.109       .  S
C3242      H3246   1.110       .  S
C3242      H3247   1.108       .  S
C3242      H3248   1.112       .  S
C3249      C3250   1.400       .  A
C3249      C3254   1.393       .  A
C3249      H3256   1.084       .  S
C3250      C3251   1.421       .  A
C3251      C3252   1.400       .  A
C3251      C3258   1.510       .  S
C3252      C3253   1.395       .  A
C3252      H3257   1.084       .  S
C3253      C3254   1.410       .  A
C3254      C3255   1.508       .  S
C3255      H3259   1.111       .  S
C3255      H3260   1.108       .  S
C3255      H3261   1.110       .  S
C3258      H3262   1.108       .  S
C3258      H3263   1.110       .  S
C3258      H3264   1.111       .  S
C3265      C3266   1.405       .  A
C3265      C3270   1.394       .  A
C3265      H3272   1.084       .  S
C3266      C3267   1.423       .  A
C3267      C3268   1.404       .  A
C3267      C3274   1.508       .  S
C3268      C3269   1.397       .  A
C3268      H3273   1.084       .  S
C3269      C3270   1.409       .  A
C3270      C3271   1.508       .  S
C3271      H3275   1.111       .  S
C3271      H3276   1.109       .  S
C3271      H3277   1.107       .  S
C3274      H3278   1.111       .  S
C3274      H3279   1.110       .  S
C3274      H3280   1.111       .  S
C3281      C3282   1.400       .  A
C3281      C3286   1.403       .  A
C3281      H3288   1.085       .  S
C3282      C3283   1.409       .  A
C3283      C3284   1.399       .  A
C3283      C3290   1.504       .  S
C3284      C3285   1.403       .  A
C3284      H3289   1.084       .  S
C3285      C3286   1.418       .  A
C3286      C3287   1.508       .  S
C3287      H3291   1.111       .  S
C3287      H3292   1.110       .  S
C3287      H3293   1.111       .  S
C3290      H3294   1.111       .  S
C3290      H3295   1.108       .  S
C3290      H3296   1.111       .  S
C3297      C3298   1.411   1_655  A
C3297      C3302   1.423       .  A
C3297      H3304   1.084       .  S
C3298      C3299   1.420       .  A
C3299      C3300   1.411       .  A
C3299      C3306   1.509       .  S
C3300      C3301   1.406       .  A
C3300      H3305   1.084       .  S
C3301      C3302   1.420   1_455  A
C3302      C3303   1.505       .  S
C3303      H3307   1.111       .  S
C3303      H3308   1.110       .  S
C3303      H3309   1.111       .  S
C3306      H3310   1.110       .  S
C3306      H3311   1.109       .  S
C3306      H3312   1.111       .  S
C3313      C3314   1.404       .  A
C3313      C3318   1.397       .  A
C3313      H3320   1.084       .  S
C3314      C3315   1.420       .  A
C3315      C3316   1.395       .  A
C3315      C3322   1.510       .  S
C3316      C3317   1.395       .  A
C3316      H3321   1.085       .  S
C3317      C3318   1.410       .  A
C3318      C3319   1.509       .  S
C3319      H3323   1.111       .  S
C3319      H3324   1.111       .  S
C3319      H3325   1.110       .  S
C3322      H3326   1.110       .  S
C3322      H3327   1.110       .  S
C3322      H3328   1.111       .  S
C3329      C3330   1.402       .  A
C3329      C3334   1.395       .  A
C3329      H3336   1.085       .  S
C3330      C3331   1.407       .  A
C3331      C3332   1.397       .  A
C3331      C3338   1.506       .  S
C3332      C3333   1.401       .  A
C3332      H3337   1.085       .  S
C3333      C3334   1.406       .  A
C3334      C3335   1.507       .  S
C3335      H3339   1.111       .  S
C3335      H3340   1.110       .  S
C3335      H3341   1.110       .  S
C3338      H3342   1.109       .  S
C3338      H3343   1.110       .  S
C3338      H3344   1.111       .  S
C3345      C3346   1.407       .  A
C3345      C3350   1.397       .  A
C3345      H3352   1.084       .  S
C3346      C3347   1.422       .  A
C3347      C3348   1.406       .  A
C3347      C3354   1.507       .  S
C3348      C3349   1.398       .  A
C3348      H3353   1.084       .  S
C3349      C3350   1.407       .  A
C3350      C3351   1.509       .  S
C3351      H3355   1.111       .  S
C3351      H3356   1.111       .  S
C3351      H3357   1.110       .  S
C3354      H3358   1.110       .  S
C3354      H3359   1.110       .  S
C3354      H3360   1.111       .  S
C3361      C3362   1.404       .  A
C3361      C3366   1.401       .  A
C3361      H3368   1.084       .  S
C3362      C3363   1.417       .  A
C3363      C3364   1.400       .  A
C3363      C3370   1.509       .  S
C3364      C3365   1.403       .  A
C3364      H3369   1.084       .  S
C3365      C3366   1.413       .  A
C3366      C3367   1.506       .  S
C3367      H3371   1.111       .  S
C3367      H3372   1.108       .  S
C3367      H3373   1.110       .  S
C3370      H3374   1.110       .  S
C3370      H3375   1.110       .  S
C3370      H3376   1.111       .  S
C3377      C3378   1.409   1_455  A
C3377      C3382   1.417       .  A
C3377      H3384   1.084       .  S
C3378      C3379   1.425       .  A
C3379      C3380   1.416       .  A
C3379      C3386   1.508       .  S
C3380      C3381   1.410       .  A
C3380      H3385   1.083       .  S
C3381      C3382   1.426   1_655  A
C3382      C3383   1.508       .  S
C3383      H3387   1.111       .  S
C3383      H3388   1.110       .  S
C3383      H3389   1.109       .  S
C3386      H3390   1.110       .  S
C3386      H3391   1.110       .  S
C3386      H3392   1.111       .  S
C3393      C3394   1.414       .  A
C3393      C3398   1.420       .  A
C3393      H3400   1.084       .  S
C3394      C3395   1.428   1_655  A
C3395      C3396   1.426       .  A
C3395      C3402   1.506       .  S
C3396      C3397   1.410   1_455  A
C3396      H3401   1.084       .  S
C3397      C3398   1.423       .  A
C3398      C3399   1.509       .  S
C3399      H3403   1.111       .  S
C3399      H3404   1.109       .  S
C3399      H3405   1.111       .  S
C3402      H3406   1.110   1_455  S
C3402      H3407   1.110       .  S
C3402      H3408   1.111       .  S
