geometry optimzed in LAMMPS
_audit_creation_date              2020-12-01 
_audit_creation_method            'lammps2cif' 
_symmetry_space_group_name_H-M    'P1' 
_symmetry_Int_Tables_number       1 
_symmetry_cell_setting            triclinic 
loop_ 
_symmetry_equiv_pos_as_xyz 
  x,y,z 
_cell_length_a                    31.09646185 
_cell_length_b                    34.064328034701134 
_cell_length_c                    26.544735422293165 
_cell_angle_alpha                 84.07406548085271 
_cell_angle_beta                  113.56816678275582 
_cell_angle_gamma                 127.41305361080953 
loop_ 
_atom_site_label 
_atom_site_type_symbol 
_atom_site_fract_x 
_atom_site_fract_y 
_atom_site_fract_z 
_atom_site_charge 
O1          O  0.38880586  0.44208082  0.26804401    -0.71300
O2          O  0.44834082  0.40956761  0.19283445    -0.71500
O3          O  0.44525003  0.40216524  0.29428212    -0.71400
O4          O  0.39207510  0.45000296  0.16661087    -0.71400
O5          O  0.47592102  0.52552683  0.20354187    -0.71300
O6          O  0.53262649  0.47514672  0.32629723    -0.71400
O7          O  0.53222213  0.48553546  0.22365010    -0.71300
O8          O  0.47608015  0.51525900  0.30647378    -0.71500
V9          V  0.42026694  0.42739158  0.23104724     1.35200
V10         V  0.50258085  0.49898463  0.26441714     1.35200
C11         C  0.42275756  0.48374089  0.30129595     0.77900
C12         C  0.49986417  0.44230006  0.19413000     0.78000
C13         C  0.49815803  0.43034081  0.33238981     0.77900
C14         C  0.42498900  0.49590968  0.16299868     0.77800
N15         N  0.72794621  0.39828823  0.40071628    -0.03000
C16         C  0.73254386  0.41223738  0.35185882    -0.00400
C17         C  0.67665561  0.39535379  0.31133948    -0.23300
C18         C  0.63675477  0.36882092  0.33487742    -0.23500
C19         C  0.66932457  0.37113266  0.38962442    -0.00500
H20         H  0.66466379  0.39721318  0.26753432     0.13300
H21         H  0.58859545  0.34678164  0.31316933     0.13300
N22         N  0.57507361  0.36362041  0.03659641    -0.03000
C23         C  0.57297132  0.36762813  0.08628882    -0.00400
C24         C  0.59244621  0.34376114  0.12223892    -0.23300
C25         C  0.60814532  0.32569385  0.09505257    -0.23500
C26         C  0.59762618  0.33849624  0.04276318    -0.00500
H27         H  0.59574320  0.34052028  0.16440004     0.13300
H28         H  0.62529974  0.30525109  0.11184306     0.13300
C29         C  0.64107548  0.33588219  0.42404381     0.03600
C30         C  0.63485020  0.35445551  0.96757045    -0.12500
C31         C  0.60520799  0.32180341  0.99926728     0.01100
C32         C  0.58118346  0.26468527  0.48244204    -0.11100
C33         C  0.58672787  0.24890332  0.43957199     0.03600
C34         C  0.61967674  0.28626080  0.41280680    -0.10500
H35         H  0.65092691  0.39278412  0.97295022     0.09200
H36         H  0.55690011  0.24617048  0.01299442     0.06700
H37         H  0.62651496  0.27660256  0.38066121     0.06600
N38         N  0.55183526  0.19530328  0.41738340    -0.03000
C39         C  0.53289764  0.18006560  0.36205332    -0.00400
C40         C  0.47178092  0.14084660  0.33807276    -0.23300
C41         C  0.45387991  0.12772055  0.38026886    -0.23500
C42         C  0.50447293  0.15854001  0.42905721    -0.00500
H43         H  0.44531828  0.11762523  0.29677079     0.13300
H44         H  0.41200452  0.09270231  0.37715229     0.13300
O45         O  0.57149498  0.97898136  0.28099715    -0.71300
O46         O  0.60647428  0.05938207  0.17154269    -0.71500
O47         O  0.60906168  0.07433225  0.26958990    -0.71400
O48         O  0.56688242  0.96483691  0.17875661    -0.71400
O49         O  0.47445021  0.93480020  0.14248339    -0.71300
O50         O  0.51713344  0.04632463  0.22512849    -0.71400
O51         O  0.51287710  0.02781157  0.12780324    -0.71300
O52         O  0.48014140  0.95310725  0.24211494    -0.71500
V53         V  0.58671236  0.01846465  0.22489182     1.35200
V54         V  0.49800792  0.99099245  0.18544847     1.35200
C55         C  0.52019713  0.95261011  0.28065544     0.77900
C56         C  0.56561943  0.05743849  0.13140403     0.78000
C57         C  0.57028591  0.08067587  0.25923732     0.77900
C58         C  0.51325490  0.93216805  0.14286335     0.77800
O59         O  0.04109507  0.50537117  0.20361491    -0.71300
O60         O  0.93047487  0.45598151  0.26818635    -0.71500
O61         O  0.92157110  0.45006202  0.16336652    -0.71400
O62         O  0.05040204  0.51103209  0.30947145    -0.71400
O63         O  0.05422118  0.57689356  0.30523716    -0.71300
O64         O  0.93589770  0.52053723  0.15463930    -0.71400
O65         O  0.93520743  0.52232562  0.25607518    -0.71300
O66         O  0.05502952  0.57587411  0.20382203    -0.71500
V67         V  0.98618196  0.48188446  0.23616278     1.35200
V68         V  0.99491260  0.54757625  0.23006413     1.35200
C69         C  0.06677799  0.54923888  0.19228355     0.77900
C70         C  0.91355532  0.48073370  0.27250290     0.78000
C71         C  0.90790015  0.47542027  0.13321220     0.77900
C72         C  0.07291865  0.55376176  0.33318134     0.77800
N73         N  0.33670972  0.54945152  0.95373514    -0.03000
C74         C  0.31541356  0.52315342  0.40359021    -0.00400
C75         C  0.27209773  0.52594370  0.36466901    -0.23300
C76         C  0.26903195  0.55568826  0.39203614    -0.23500
C77         C  0.30984883  0.56969020  0.44720840    -0.00500
H78         H  0.25168103  0.51402207  0.31976809     0.13300
H79         H  0.24576341  0.57104518  0.37232004     0.13300
C80         C  0.33549400  0.66943257  0.03384324     0.03600
C81         C  0.31238983  0.62212176  0.00920791    -0.12500
C82         C  0.33702570  0.61869555  0.97765464     0.01100
C83         C  0.38565558  0.66227726  0.47266133    -0.11100
C84         C  0.40909344  0.71057270  0.49523620     0.03600
C85         C  0.38502270  0.71337350  0.52861944    -0.10500
H86         H  0.27574536  0.58795725  0.01507924     0.09200
H87         H  0.40087490  0.65810725  0.44505509     0.06700
H88         H  0.40201160  0.74935639  0.54761135     0.06600
N89         N  0.25197086  0.64159344  0.05971614    -0.03000
C90         C  0.24979119  0.64858776  0.10814169    -0.00400
C91         C  0.30743450  0.68409067  0.14853840    -0.23300
C92         C  0.34611715  0.69852684  0.12499859    -0.23500
C93         C  0.31112632  0.67138130  0.07089639    -0.00500
H94         H  0.32014184  0.69603453  0.19166421     0.13300
H95         H  0.39451640  0.72381442  0.14608615     0.13300
N96         N  0.46202995  0.79925661  0.47150380    -0.03000
C97         C  0.49452604  0.82146422  0.44079139    -0.00400
C98         C  0.51178615  0.79461390  0.43280382    -0.23300
C99         C  0.48765082  0.75356861  0.45728977    -0.23500
C100        C  0.45521662  0.75573200  0.47927748    -0.00500
H101        H  0.53473175  0.80161823  0.40727598     0.13300
H102        H  0.49100438  0.72394317  0.45595669     0.13300
C103        C  0.11645099  0.54606416  0.43378935    -0.01400
C104        C  0.11948331  0.57626702  0.39230971     0.08300
C105        C  0.16652551  0.62877293  0.40818514    -0.01500
C106        C  0.20761869  0.65078813  0.46470721    -0.01500
C107        C  0.20638268  0.62041093  0.50548284     0.08500
C108        C  0.16136128  0.56784597  0.48937147    -0.01700
Br109      Br  0.16340626  0.52527507  0.54219889    -0.00200
Br110      Br  0.04931930  0.47525302  0.41627763    -0.00300
Br111      Br  0.25875490  0.72250143  0.98897467    -0.00300
Br112      Br  0.17848758  0.67098882  0.35252349    -0.00200
C113        C  0.10783585  0.59832016  0.12338868    -0.01400
C114        C  0.10917544  0.56944122  0.16564548     0.08300
C115        C  0.15278382  0.56211438  0.18352669    -0.01500
C116        C  0.19640558  0.58580910  0.16220112    -0.01500
C117        C  0.19702335  0.61696496  0.12223071     0.08500
C118        C  0.15203423  0.62260215  0.10269578    -0.01700
Br119      Br  0.15327273  0.66688864  0.05101403    -0.00200
Br120      Br  0.04404515  0.60355091  0.09173330    -0.00300
Br121      Br  0.25665353  0.57626168  0.18928515    -0.00300
Br122      Br  0.15567068  0.52205827  0.23984097    -0.00200
C123        C  0.43245363  0.87478377  0.52584671    -0.01400
C124        C  0.49626650  0.89387419  0.09959620     0.08300
C125        C  0.53401983  0.88111171  0.10765091    -0.01500
C126        C  0.52227266  0.85074537  0.06400868    -0.01500
C127        C  0.46383658  0.82839395  0.50948172     0.08500
C128        C  0.42589247  0.84167320  0.49012821    -0.01700
Br129      Br  0.36474922  0.81410839  0.41438281    -0.00200
Br130      Br  0.38523505  0.89762990  0.49464276    -0.00300
Br131      Br  0.57872546  0.83933672  0.07419616    -0.00300
Br132      Br  0.60078067  0.90241566  0.17911708    -0.00200
C133        C  0.46042938  0.86798443  0.30570556    -0.01400
C134        C  0.50710136  0.92035119  0.32309028     0.08300
C135        C  0.54411980  0.94085796  0.38086253    -0.01500
C136        C  0.53777378  0.90899064  0.42051396    -0.01500
C137        C  0.49321718  0.85645167  0.40281758     0.08500
C138        C  0.45333570  0.83627839  0.34537384    -0.01700
Br139      Br  0.39065920  0.76433457  0.32022224    -0.00200
Br140      Br  0.40948608  0.83864705  0.22695005    -0.00300
Br141      Br  0.59276687  0.93715265  0.49841999    -0.00300
Br142      Br  0.60336546  0.01275394  0.40584761    -0.00200
C143        C  0.61616987  0.17911883  0.36766317    -0.01400
C144        C  0.57049506  0.18348840  0.33690636     0.08300
C145        C  0.54708171  0.17376697  0.27812786    -0.01500
C146        C  0.55198585  0.14386928  0.25164325    -0.01500
C147        C  0.58399290  0.12652625  0.28424306     0.08500
C148        C  0.62275877  0.15022196  0.34109560    -0.01700
Br149      Br  0.68268329  0.14196543  0.38305876    -0.00200
Br150      Br  0.66755596  0.20987212  0.44583374    -0.00300
Br151      Br  0.51346671  0.12610204  0.17085224    -0.00300
Br152      Br  0.50407041  0.19813440  0.23477444    -0.00200
C153        C  0.60559839  0.17110297  0.06737313    -0.01400
C154        C  0.56427951  0.14699837  0.01107836     0.08300
C155        C  0.52608659  0.10171568  0.48081885    -0.01500
C156        C  0.54821851  0.06899977  0.03387414    -0.01500
C157        C  0.57860745  0.09044216  0.09073885     0.08500
C158        C  0.61255952  0.14258785  0.10742557    -0.01700
Br159      Br  0.66478845  0.17397882  0.18547617    -0.00200
Br160      Br  0.65218654  0.24215766  0.09093927    -0.00300
Br161      Br  0.51514372  0.00050971  0.01188241     0.01800
Br162      Br  0.53310056  0.08470721  0.41899956    -0.00200
C163        C  0.88384052  0.49096022  0.34265997    -0.01400
C164        C  0.86931977  0.46175665  0.29595115     0.08300
C165        C  0.81155066  0.41547979  0.27022958    -0.01500
C166        C  0.76950695  0.39759654  0.29226458    -0.01500
C167        C  0.78224106  0.42837527  0.33673919     0.08500
C168        C  0.83980220  0.47572309  0.36108227    -0.01700
Br169      Br  0.85786750  0.52289035  0.41518161    -0.00200
Br170      Br  0.96487159  0.55172763  0.38219823    -0.00300
Br171      Br  0.69500694  0.32974448  0.26141020    -0.00300
Br172      Br  0.78806441  0.37862909  0.20145822    -0.00200
C173        C  0.82609552  0.47003053  0.05100131    -0.01400
C174        C  0.86100361  0.45356338  0.07410871     0.08300
C175        C  0.85189557  0.41766771  0.03949946    -0.01500
C176        C  0.80864214  0.39887122  0.98316902    -0.01500
C177        C  0.77688381  0.41774969  0.95987435     0.08500
C178        C  0.78640376  0.45386860  0.99387189    -0.01700
Br179      Br  0.74617990  0.48281625  0.96123975    -0.00200
Br180      Br  0.82768805  0.51135652  0.09763927    -0.00300
Br181      Br  0.79336086  0.35146875  0.43191747    -0.00300
Br182      Br  0.89908659  0.39459469  0.06725820    -0.00200
C183        C  0.49855627  0.38055608  0.08085679    -0.01400
C184        C  0.55728265  0.39564189  0.10520452     0.08300
C185        C  0.59901497  0.43107083  0.15642178    -0.01500
C186        C  0.58042459  0.44565904  0.18607667    -0.01500
C187        C  0.52145692  0.42987636  0.16195076     0.08500
C188        C  0.48222545  0.40026006  0.10735017    -0.01700
Br189      Br  0.40637661  0.38773325  0.06766424    -0.00200
Br190      Br  0.42850399  0.31352672  0.51166210    -0.00300
Br191      Br  0.63461292  0.48285368  0.26215190    -0.00300
Br192      Br  0.68239197  0.45949705  0.18703794    -0.00200
C193        C  0.49049053  0.35925279  0.38065851    -0.01400
C194        C  0.51834595  0.41138481  0.38327510     0.08300
C195        C  0.56430996  0.44467675  0.43549980    -0.01500
C196        C  0.58194850  0.42613129  0.48312298    -0.01500
C197        C  0.55073115  0.37400003  0.48137750     0.08500
C198        C  0.50468874  0.34066743  0.42963559    -0.01700
Br199      Br  0.45908713  0.26876116  0.42552913    -0.00200
Br200      Br  0.43567918  0.31242932  0.30975067    -0.00300
Br201      Br  0.65272662  0.47272794  0.54936062    -0.00300
Br202      Br  0.60277331  0.51590986  0.44445201    -0.00200
C203        C  0.37149550  0.46235026  0.36487170    -0.01400
C204        C  0.40017967  0.49565832  0.33247438     0.08300
C205        C  0.40585427  0.54003665  0.32864023    -0.01500
C206        C  0.38239498  0.55063750  0.35595408    -0.01500
C207        C  0.35010324  0.51575645  0.38527708     0.08500
C208        C  0.34550166  0.47184725  0.39018670    -0.01700
Br209      Br  0.30129852  0.42352740  0.42922991    -0.00200
Br210      Br  0.36910066  0.40426515  0.37584012    -0.00300
Br211      Br  0.39550347  0.61145979  0.85235171    -0.00300
Br212      Br  0.44110225  0.58451274  0.28165853    -0.00200
C213        C  0.42061111  0.55797024  0.03394595    -0.01400
C214        C  0.36037532  0.53861150  0.00767656     0.08300
C215        C  0.32274519  0.50817435  0.03483494    -0.01500
C216        C  0.34521278  0.49737173  0.08728020    -0.01500
C217        C  0.40440574  0.51373612  0.11170750     0.08500
C218        C  0.44219644  0.54451114  0.08479345    -0.01700
Br219      Br  0.52253282  0.56589202  0.11507863    -0.00200
Br220      Br  0.47372842  0.60404269  0.00074052    -0.00300
Br221      Br  0.29532789  0.46217854  0.12695637    -0.00300
Br222      Br  0.23901199  0.47857928  0.99921419    -0.00200
O223        O  0.38016014  0.43406287  0.76482286    -0.71300
O224        O  0.43874317  0.39647561  0.69330960    -0.71500
O225        O  0.43771135  0.39496584  0.79553281    -0.71400
O226        O  0.38182472  0.43676686  0.66254668    -0.71400
O227        O  0.46395997  0.51320867  0.69845619    -0.71300
O228        O  0.52556050  0.46727292  0.82192526    -0.71400
O229        O  0.52040916  0.47338348  0.71749061    -0.71300
O230        O  0.46832488  0.50643920  0.80282039    -0.71500
V231        V  0.41109044  0.41687533  0.72952911     1.35200
V232        V  0.49296448  0.48870961  0.75962333     1.35200
C233        C  0.41498930  0.47597405  0.79800924     0.77900
C234        C  0.48874479  0.42886319  0.69124573     0.78000
C235        C  0.49164858  0.42408223  0.83158934     0.77900
C236        C  0.41363659  0.48253252  0.65790155     0.77800
N237        N  0.72964315  0.39661721  0.90374492    -0.03000
C238        C  0.73388284  0.40606679  0.85393578    -0.00400
C239        C  0.67750303  0.38573769  0.81174676    -0.23300
C240        C  0.63773786  0.36194508  0.83563071    -0.23500
C241        C  0.67073757  0.36904581  0.89206435    -0.00500
H242        H  0.66558141  0.38402465  0.76738618     0.13300
H243        H  0.58945723  0.33844170  0.81351213     0.13300
N244        N  0.56834043  0.35497551  0.53069687    -0.03000
C245        C  0.56480732  0.35714357  0.58030526    -0.00400
C246        C  0.58123283  0.33059628  0.61424914    -0.23300
C247        C  0.59596385  0.31218591  0.58607976    -0.23500
C248        C  0.58835880  0.32767073  0.53519941    -0.00500
H249        H  0.58275290  0.32547111  0.65569736     0.13300
H250        H  0.61118047  0.29008779  0.60144506     0.13300
C251        C  0.64297390  0.33703502  0.92883217     0.03600
C252        C  0.62955541  0.34925820  0.46262738    -0.12500
C253        C  0.59985482  0.31399780  0.49256316     0.01100
C254        C  0.58245966  0.27151173  0.99052899    -0.11100
C255        C  0.58994037  0.25310850  0.95203979     0.03600
C256        C  0.62013863  0.28656399  0.92120414    -0.10500
H257        H  0.64403648  0.38696828  0.46969234     0.09200
H258        H  0.56004226  0.23834814  0.50610390     0.06700
H259        H  0.62421871  0.27297284  0.88959657     0.06600
N260        N  0.56081849  0.19971821  0.93940941    -0.03000
C261        C  0.51686704  0.17528674  0.88687988    -0.00400
C262        C  0.46235846  0.14120966  0.89035708    -0.23300
C263        C  0.47530424  0.13809844  0.94555478    -0.23500
C264        C  0.53695858  0.16905452  0.97329756    -0.00500
H265        H  0.41979188  0.11196782  0.85713334     0.13300
H266        H  0.44453258  0.10680253  0.96011966     0.13300
O267        O  0.53765935  0.97262811  0.75830007    -0.71300
O268        O  0.55111918  0.05234285  0.64511189    -0.71500
O269        O  0.55347317  0.05961626  0.74531330    -0.71400
O270        O  0.53440036  0.96536130  0.65557033    -0.71400
O271        O  0.43827189  0.92333192  0.61822392    -0.71300
O272        O  0.45798519  0.01832309  0.70760375    -0.71400
O273        O  0.45475419  0.01071479  0.60689810    -0.71300
O274        O  0.44163128  0.93153935  0.72051017    -0.71500
V275        V  0.54228529  0.01145490  0.70048865     1.35200
V276        V  0.44997505  0.97157872  0.66399681     1.35200
C277        C  0.48753086  0.93910620  0.75952819     0.77900
C278        C  0.50532826  0.04575871  0.60755857     0.78000
C279        C  0.50924719  0.05628576  0.74069590     0.77900
C280        C  0.48306550  0.92869450  0.62050594     0.77800
O281        O  0.04127287  0.50949556  0.69914330    -0.71300
O282        O  0.93187756  0.45615697  0.76581204    -0.71500
O283        O  0.92160510  0.45198483  0.65968879    -0.71400
O284        O  0.05160361  0.51333330  0.80541212    -0.71400
O285        O  0.05088546  0.57663608  0.80370651    -0.71300
O286        O  0.93577778  0.52243605  0.65172634    -0.71400
O287        O  0.93161051  0.51990166  0.75223255    -0.71300
O288        O  0.05516580  0.57977888  0.70339835    -0.71500
V289        V  0.98674120  0.48389847  0.73244116     1.35200
V290        V  0.99318597  0.54842844  0.72780531     1.35200
C291        C  0.06755916  0.55422120  0.69042576     0.77900
C292        C  0.91273293  0.47900112  0.77008644     0.78000
C293        C  0.90801757  0.47752998  0.62976806     0.77900
C294        C  0.07168795  0.55459281  0.83053961     0.77800
N295        N  0.33691645  0.54838789  0.45489029    -0.03000
C296        C  0.31441491  0.52256240  0.90310965    -0.00400
C297        C  0.27042688  0.52436672  0.86359362    -0.23300
C298        C  0.26744663  0.55486759  0.88973612    -0.23500
C299        C  0.30901612  0.57033398  0.94474874    -0.00500
H300        H  0.24906694  0.51092074  0.81889728     0.13300
H301        H  0.24337140  0.56941782  0.86925907     0.13300
C302        C  0.33760483  0.66906770  0.53725259     0.03600
C303        C  0.31431657  0.62163636  0.51265647    -0.12500
C304        C  0.33881948  0.61813463  0.48091975     0.01100
C305        C  0.38376673  0.66262397  0.96935883    -0.11100
C306        C  0.40717842  0.71099421  0.99147193     0.03600
C307        C  0.38304908  0.71388310  0.02504895    -0.10500
H308        H  0.27741463  0.58751889  0.51834330     0.09200
H309        H  0.39870601  0.65793285  0.94184452     0.06700
H310        H  0.40002060  0.74991499  0.04390261     0.06600
N311        N  0.25422027  0.64346427  0.56162328    -0.03000
C312        C  0.25211779  0.65327086  0.60876325    -0.00400
C313        C  0.30966836  0.68912090  0.64896192    -0.23300
C314        C  0.34837986  0.70109470  0.62661123    -0.23500
C315        C  0.31333056  0.67197102  0.57353516    -0.00500
H316        H  0.32219937  0.70268915  0.69137221     0.13300
H317        H  0.39677634  0.72633754  0.64778486     0.13300
N318        N  0.45973816  0.79965483  0.96776506    -0.03000
C319        C  0.48665763  0.82020954  0.93214549    -0.00400
C320        C  0.50115497  0.79238222  0.92020800    -0.23300
C321        C  0.48020953  0.75225559  0.94654723    -0.23500
C322        C  0.45214137  0.75572094  0.97364417    -0.00500
H323        H  0.51924612  0.79770618  0.89051211     0.13300
H324        H  0.48242892  0.72232325  0.94271489     0.13300
C325        C  0.11649882  0.54522696  0.93005310    -0.01400
C326        C  0.11772869  0.57650564  0.89001793     0.08300
C327        C  0.16233857  0.62932785  0.90776689    -0.01500
C328        C  0.20351753  0.65027127  0.96442892    -0.01500
C329        C  0.20384469  0.61903979  0.00370352     0.08500
C330        C  0.16045280  0.56644226  0.98610350    -0.01700
Br331      Br  0.16314330  0.52337285  0.03801852    -0.00200
Br332      Br  0.05327135  0.47331647  0.90985095    -0.00300
Br333      Br  0.26493065  0.72329701  0.48653725    -0.00300
Br334      Br  0.17086233  0.67392362  0.85453393    -0.00200
C335        C  0.11255207  0.60726590  0.62521487    -0.01400
C336        C  0.11165287  0.57632438  0.66560749     0.08300
C337        C  0.15420780  0.56777023  0.68306180    -0.01500
C338        C  0.19818657  0.59129738  0.66237928    -0.01500
C339        C  0.19966439  0.62285828  0.62287970     0.08500
C340        C  0.15639394  0.63041639  0.60418990    -0.01700
Br341      Br  0.15937954  0.67508922  0.55239498    -0.00200
Br342      Br  0.05302899  0.61754586  0.59705207    -0.00300
Br343      Br  0.25798690  0.58116495  0.68987302    -0.00300
Br344      Br  0.15571514  0.52655665  0.73840929    -0.00200
C345        C  0.44409966  0.87234558  0.04745116    -0.01400
C346        C  0.47577183  0.89347471  0.58249795     0.08300
C347        C  0.51328262  0.87938378  0.60199300    -0.01500
C348        C  0.50790369  0.84778704  0.56554825    -0.01500
C349        C  0.47136689  0.83071583  0.01224997     0.08500
C350        C  0.43263424  0.84158770  0.00435204    -0.01700
Br351      Br  0.36424613  0.81432009  0.93296944    -0.00200
Br352      Br  0.38696985  0.88427703  0.03170036    -0.00300
Br353      Br  0.56357847  0.83325808  0.59211115    -0.00300
Br354      Br  0.57207407  0.90224428  0.67903538    -0.00200
C355        C  0.43730830  0.85669234  0.79316264    -0.01400
C356        C  0.48271053  0.90945296  0.80551862     0.08300
C357        C  0.52379044  0.93356439  0.86212859    -0.01500
C358        C  0.52272021  0.90492079  0.90490492    -0.01500
C359        C  0.47906280  0.85211518  0.89213188     0.08500
C360        C  0.43472377  0.82850481  0.83633776    -0.01700
Br361      Br  0.37133985  0.75652223  0.81834108    -0.00200
Br362      Br  0.38171412  0.82166636  0.71643247    -0.00300
Br363      Br  0.58293648  0.93789965  0.98059631    -0.00300
Br364      Br  0.58101790  0.00611397  0.88182831    -0.00200
C365        C  0.57626088  0.16283511  0.85487241    -0.01400
C366        C  0.52616682  0.16126550  0.84226527     0.08300
C367        C  0.47749939  0.13484964  0.78928846    -0.01500
C368        C  0.46963806  0.09836481  0.75793329    -0.01500
C369        C  0.51714653  0.09576766  0.77286650     0.08500
C370        C  0.57267309  0.13227709  0.81864634    -0.01700
Br371      Br  0.64488250  0.14073249  0.83525932    -0.00200
Br372      Br  0.64990019  0.20368853  0.92253821    -0.00300
Br373      Br  0.39112766  0.05127391  0.69741837    -0.00300
Br374      Br  0.42169241  0.14937429  0.75947042    -0.00200
C375        C  0.49130896  0.13478711  0.51756357    -0.01400
C376        C  0.51101926  0.13405382  0.47842216     0.08300
C377        C  0.54136614  0.09719611  0.99368945    -0.01500
C378        C  0.52738710  0.07506539  0.52487214    -0.01500
C379        C  0.51049386  0.07807370  0.56517609     0.08500
C380        C  0.49360263  0.10870275  0.56201358    -0.01700
Br381      Br  0.47513796  0.11622930  0.61956055    -0.00200
Br382      Br  0.45220770  0.16452563  0.50596334    -0.00300
Br383      Br  0.54800601  0.03121277  0.52781053     0.01800
Br384      Br  0.49846939  0.06540007  0.91583421    -0.00200
C385        C  0.88043809  0.49149904  0.83648882    -0.01400
C386        C  0.87007903  0.45914045  0.79612027     0.08300
C387        C  0.81834509  0.40824105  0.78021450    -0.01500
C388        C  0.77704418  0.39030932  0.80334125    -0.01500
C389        C  0.78523012  0.42346162  0.84098616     0.08500
C390        C  0.83772832  0.47415004  0.85768601    -0.01700
Br391      Br  0.85003417  0.52160384  0.90604633    -0.00200
Br392      Br  0.95417100  0.55986865  0.86408245    -0.00300
Br393      Br  0.70850768  0.31956455  0.78242718    -0.00300
Br394      Br  0.80085782  0.36361498  0.72287633    -0.00200
C395        C  0.82532217  0.47172789  0.54817776    -0.01400
C396        C  0.86115865  0.45603943  0.57051388     0.08300
C397        C  0.85279811  0.42113470  0.53508868    -0.01500
C398        C  0.80890313  0.40203326  0.47894015    -0.01500
C399        C  0.77509233  0.41913367  0.45689825     0.08500
C400        C  0.78399235  0.45445912  0.49154071    -0.01700
Br401      Br  0.74151916  0.48164972  0.45999333    -0.00200
Br402      Br  0.82892693  0.51456750  0.59491231    -0.00300
Br403      Br  0.79063664  0.34565962  0.93821803    -0.00300
Br404      Br  0.90252241  0.40052497  0.56135830    -0.00200
C405        C  0.48745153  0.36487592  0.57824535    -0.01400
C406        C  0.54759295  0.38353513  0.60040051     0.08300
C407        C  0.58888270  0.41943484  0.65136646    -0.01500
C408        C  0.57010908  0.43457045  0.68045546    -0.01500
C409        C  0.50955727  0.41490234  0.65889102     0.08500
C410        C  0.46881867  0.38093373  0.60659237    -0.01700
Br411      Br  0.38672399  0.35606895  0.57264895    -0.00200
Br412      Br  0.43721455  0.32837719  0.01540813    -0.00300
Br413      Br  0.62730860  0.47877411  0.75294939    -0.00300
Br414      Br  0.67195959  0.44681947  0.68356710    -0.00200
C415        C  0.48742208  0.35703777  0.88586396    -0.01400
C416        C  0.51422072  0.40855842  0.88429463     0.08300
C417        C  0.56219458  0.44499030  0.93407058    -0.01500
C418        C  0.58336230  0.43003536  0.98336108    -0.01500
C419        C  0.55385996  0.37877266  0.98562414     0.08500
C420        C  0.50567289  0.34225710  0.93659567    -0.01700
Br421      Br  0.46232396  0.27130686  0.93910162    -0.00200
Br422      Br  0.42798002  0.30576475  0.81852992    -0.00300
Br423      Br  0.65595362  0.47991182  0.04671933    -0.00300
Br424      Br  0.59831310  0.51565426  0.93776266    -0.00200
C425        C  0.36153212  0.45552375  0.85991537    -0.01400
C426        C  0.39363806  0.48936860  0.82977101     0.08300
C427        C  0.40439918  0.53606730  0.82922074    -0.01500
C428        C  0.38164588  0.54791304  0.85630066    -0.01500
C429        C  0.34782602  0.51340792  0.88476943     0.08500
C430        C  0.33878669  0.46755270  0.88716810    -0.01700
Br431      Br  0.29323375  0.42057097  0.92618316    -0.00200
Br432      Br  0.34947118  0.39289147  0.86511391    -0.00300
Br433      Br  0.39428065  0.61333852  0.35200128    -0.00300
Br434      Br  0.44627430  0.58275407  0.78735810    -0.00200
C435        C  0.41668258  0.55259061  0.53540204    -0.01400
C436        C  0.35676251  0.53351260  0.50687042     0.08300
C437        C  0.31509169  0.49742905  0.52798046    -0.01500
C438        C  0.33365587  0.48161774  0.57780212    -0.01500
C439        C  0.39369386  0.49993848  0.60591672     0.08500
C440        C  0.43484236  0.53490015  0.58360291    -0.01700
Br441      Br  0.51509680  0.55574821  0.61554748    -0.00200
Br442      Br  0.47368675  0.60353640  0.50819964    -0.00300
Br443      Br  0.27651505  0.43601254  0.60794138    -0.00300
Br444      Br  0.23140852  0.46730995  0.48706169    -0.00200
loop_ 
_geom_bond_atom_site_label_1 
_geom_bond_atom_site_label_2 
_geom_bond_distance 
_geom_bond_site_symmetry_2 
_ccdc_geom_bond_type 
O1            V9   1.907       .  S
O1           C11   1.265       .  A
O2            V9   1.908       .  S
O2           C12   1.267       .  A
O3            V9   1.905       .  S
O3           C13   1.266       .  A
O4            V9   1.907       .  S
O4           C14   1.267       .  A
O5           V10   1.911       .  S
O5           C14   1.267       .  A
O6           V10   1.910       .  S
O6           C13   1.267       .  A
O7           V10   1.909       .  S
O7           C12   1.266       .  A
O8           V10   1.911       .  S
O8           C11   1.267       .  A
V9           V10   2.081       .  T
C11         C204   1.491       .  S
C12         C187   1.496       .  S
C13         C194   1.507       .  S
C14         C217   1.496       .  S
N15          C19   1.358       .  A
N15          C16   1.366       .  A
N15         C399   1.443       .  S
C16         C167   1.507       .  S
C16          C17   1.388       .  A
C17          C18   1.374       .  A
C17          H20   1.078       .  S
C18          C19   1.376       .  A
C18          H21   1.082       .  S
C19          C29   1.477       .  S
N22          C26   1.364       .  A
N22          C23   1.371       .  A
N22         C419   1.445   1_554  S
C23         C184   1.504       .  S
C23          C24   1.384       .  A
C24          C25   1.370       .  A
C24          H27   1.082       .  S
C25          C26   1.382       .  A
C25          H28   1.079       .  S
C26          C31   1.493   1_554  S
C29          C34   1.403       .  A
C29         C252   1.405       .  A
C30          C31   1.406       .  A
C30         C251   1.410       .  A
C30          H35   1.079       .  S
C31         C254   1.403       .  A
C32          C33   1.418       .  A
C32         C253   1.419       .  A
C32         H258   1.062       .  S
C33          N38   1.470       .  S
C33          C34   1.409       .  A
C34          H37   1.082       .  S
H36         C254   1.082   1_554  S
N38          C42   1.370       .  A
N38          C39   1.367       .  A
C39         C144   1.506       .  S
C39          C40   1.387       .  A
C40          C41   1.363       .  A
C40          H43   1.082       .  S
C41          C42   1.378       .  A
C41          H44   1.083       .  S
C42         C376   1.490       .  S
O45          V53   1.905   1_565  S
O45          C55   1.265       .  A
O46          V53   1.890       .  S
O46          C56   1.258       .  A
O47          V53   1.927       .  S
O47          C57   1.271       .  A
O48          V53   1.925   1_565  S
O48          C58   1.273       .  A
O49          V54   1.892       .  S
O49          C58   1.259       .  A
O50          V54   1.888   1_545  S
O50          C57   1.262       .  A
O51          V54   1.896   1_545  S
O51          C56   1.265       .  A
O52          V54   1.906       .  S
O52          C55   1.265       .  A
V53          V54   2.083   1_545  T
C55         C134   1.486       .  S
C56         C157   1.462       .  S
C57         C147   1.497       .  S
C58         C124   1.512       .  S
O59          V67   1.918   1_455  S
O59          C69   1.269       .  A
O60          V67   1.915       .  S
O60          C70   1.268       .  A
O61          V67   1.905       .  S
O61          C71   1.264       .  A
O62          V67   1.909   1_455  S
O62          C72   1.266       .  A
O63          V68   1.900   1_455  S
O63          C72   1.265       .  A
O64          V68   1.901       .  S
O64          C71   1.266       .  A
O65          V68   1.904       .  S
O65          C70   1.264       .  A
O66          V68   1.903   1_455  S
O66          C69   1.265       .  A
V67          V68   2.081       .  T
C69         C114   1.501       .  S
C70         C164   1.489       .  S
C71         C174   1.495       .  S
C72         C104   1.493       .  S
N73         C299   1.360       .  A
N73         C296   1.365       .  A
N73         C214   1.451   1_556  S
C74         C207   1.496       .  S
C74         N295   1.362       .  A
C74          C75   1.383       .  A
C75          C76   1.374       .  A
C75          H78   1.082       .  S
C76          C77   1.380       .  A
C76          H79   1.082       .  S
C77         C304   1.480       .  S
C77         N295   1.361       .  A
C80          C93   1.489       .  S
C80          C81   1.406       .  A
C80         C307   1.420       .  A
C81          C82   1.394   1_554  A
C81          H86   1.082       .  S
C82         C299   1.477       .  S
C82         C305   1.395       .  A
C83          C84   1.412       .  A
C83         C304   1.399       .  A
C83          H87   1.078       .  S
C84         C100   1.508       .  S
C84          C85   1.410       .  A
C85         C302   1.414       .  A
C85          H88   1.079       .  S
N89          C93   1.363       .  A
N89          C90   1.366       .  A
N89         C329   1.449       .  S
C90         C117   1.501       .  S
C90          C91   1.386       .  A
C91          C92   1.378       .  A
C91          H94   1.082       .  S
C92          C93   1.380       .  A
C92          H95   1.082       .  S
N96         C100   1.370       .  A
N96          C97   1.364       .  A
N96         C127   1.449       .  S
C97         C137   1.489       .  S
C97          C98   1.377       .  A
C98          C99   1.367       .  A
C98         H101   1.082       .  S
C99         C100   1.390       .  A
C99         H102   1.081       .  S
C103        C104   1.418       .  A
C103        C108   1.413       .  A
C103       Br110   1.931       .  S
C104        C105   1.414       .  A
C105        C106   1.408       .  A
C105       Br112   1.934       .  S
C106        C107   1.413       .  A
C106       Br333   1.932       .  S
C107        N311   1.449       .  S
C107        C108   1.408       .  A
C108       Br109   1.922       .  S
Br111       C328   1.931       .  S
C113        C114   1.419       .  A
C113        C118   1.415       .  A
C113       Br120   1.933       .  S
C114        C115   1.414       .  A
C115        C116   1.415       .  A
C115       Br122   1.930       .  S
C116        C117   1.418       .  A
C116       Br121   1.936       .  S
C117        C118   1.410       .  A
C118       Br119   1.924       .  S
C123        C128   1.414       .  A
C123        C346   1.420       .  A
C123       Br130   1.931       .  S
C124        C125   1.419       .  A
C124        C345   1.433       .  A
C125        C126   1.413       .  A
C125       Br132   1.934       .  S
C126        C349   1.415       .  A
C126       Br131   1.932       .  S
C127        C128   1.406       .  A
C127        C348   1.415       .  A
C128       Br129   1.924       .  S
C133        C134   1.411       .  A
C133        C138   1.409       .  A
C133       Br140   1.933       .  S
C134        C135   1.413       .  A
C135        C136   1.412       .  A
C135       Br142   1.926   1_565  S
C136        C137   1.408       .  A
C136       Br141   1.926       .  S
C137        C138   1.416       .  A
C138       Br139   1.935       .  S
C143        C144   1.418       .  A
C143        C148   1.419       .  A
C143       Br150   1.929       .  S
C144        C145   1.407       .  A
C145        C146   1.406       .  A
C145       Br152   1.930       .  S
C146        C147   1.417       .  A
C146       Br151   1.932       .  S
C147        C148   1.413       .  A
C148       Br149   1.925       .  S
C153        C154   1.412       .  A
C153        C158   1.407       .  A
C153       Br160   1.917       .  S
C154        C264   1.494   1_554  S
C154        C377   1.424   1_554  A
C155        C376   1.423       .  A
C155        C378   1.407       .  A
C155       Br162   1.927       .  S
C156        C157   1.398       .  A
C156        C377   1.400   1_554  A
C156       Br161   1.931       .  S
C157        C158   1.406       .  A
C158       Br159   1.931       .  S
C163        C164   1.411       .  A
C163        C168   1.415       .  A
C163       Br170   1.932       .  S
C164        C165   1.407       .  A
C165        C166   1.412       .  A
C165       Br172   1.933       .  S
C166        C167   1.424       .  A
C166       Br171   1.936       .  S
C167        C168   1.416       .  A
C168       Br169   1.922       .  S
C173        C174   1.416       .  A
C173        C178   1.406   1_554  A
C173       Br180   1.935       .  S
C174        C175   1.422       .  A
C175        C176   1.413   1_554  A
C175       Br182   1.932       .  S
C176        C177   1.404       .  A
C176       Br403   1.924       .  S
C177        N237   1.443       .  S
C177        C178   1.410       .  A
C178       Br179   1.935       .  S
Br181       C398   1.926       .  S
C183        C184   1.415       .  A
C183        C188   1.414       .  A
C183       Br412   1.919       .  S
C184        C185   1.419       .  A
C185        C186   1.412       .  A
C185       Br192   1.936       .  S
C186        C187   1.413       .  A
C186       Br191   1.933       .  S
C187        C188   1.414       .  A
C188       Br189   1.933       .  S
Br190       C405   1.922       .  S
C193        C194   1.420       .  A
C193        C198   1.413       .  A
C193       Br200   1.935       .  S
C194        C195   1.422       .  A
C195        C196   1.414       .  A
C195       Br202   1.934       .  S
C196        C197   1.409       .  A
C196       Br201   1.921       .  S
C197        N244   1.455       .  S
C197        C198   1.414       .  A
C198       Br199   1.932       .  S
C203        C204   1.416       .  A
C203        C208   1.417       .  A
C203       Br210   1.930       .  S
C204        C205   1.409       .  A
C205        C206   1.409       .  A
C205       Br212   1.933       .  S
C206        C207   1.418       .  A
C206       Br433   1.933       .  S
C207        C208   1.410       .  A
C208       Br209   1.926       .  S
Br211       C428   1.933       .  S
C213        C214   1.407       .  A
C213        C218   1.416       .  A
C213       Br220   1.923       .  S
C214        C215   1.418       .  A
C215        C216   1.411       .  A
C215       Br222   1.931   1_554  S
C216        C217   1.412       .  A
C216       Br221   1.934       .  S
C217        C218   1.418       .  A
C218       Br219   1.929       .  S
O223        V231   1.914       .  S
O223        C233   1.267       .  A
O224        V231   1.916       .  S
O224        C234   1.268       .  A
O225        V231   1.906       .  S
O225        C235   1.266       .  A
O226        V231   1.912       .  S
O226        C236   1.268       .  A
O227        V232   1.900       .  S
O227        C236   1.264       .  A
O228        V232   1.899       .  S
O228        C235   1.263       .  A
O229        V232   1.918       .  S
O229        C234   1.269       .  A
O230        V232   1.917       .  S
O230        C233   1.269       .  A
V231        V232   2.077       .  T
C233        C426   1.502       .  S
C234        C409   1.512       .  S
C235        C416   1.498       .  S
C236        C439   1.495       .  S
N237        C241   1.360       .  A
N237        C238   1.367       .  A
C238        C389   1.505       .  S
C238        C239   1.386       .  A
C239        C240   1.375       .  A
C239        H242   1.080       .  S
C240        C241   1.378       .  A
C240        H243   1.082       .  S
C241        C251   1.482       .  S
N244        C248   1.374       .  A
N244        C245   1.377       .  A
C245        C406   1.514       .  S
C245        C246   1.384       .  A
C246        C247   1.372       .  A
C246        H249   1.083       .  S
C247        C248   1.381       .  A
C247        H250   1.083       .  S
C248        C253   1.503       .  S
C251        C256   1.405       .  A
C252        C253   1.403       .  A
C252        H257   1.080       .  S
C254        C255   1.411       .  A
C255        N260   1.457       .  S
C255        C256   1.404       .  A
C256        H259   1.082       .  S
N260        C264   1.360       .  A
N260        C261   1.356       .  A
C261        C366   1.508       .  S
C261        C262   1.393       .  A
C262        C263   1.367       .  A
C262        H265   1.081       .  S
C263        C264   1.380       .  A
C263        H266   1.083       .  S
O267        V275   1.911   1_565  S
O267        C277   1.267       .  A
O268        V275   1.900       .  S
O268        C278   1.263       .  A
O269        V275   1.899       .  S
O269        C279   1.264       .  A
O270        V275   1.906   1_565  S
O270        C280   1.266       .  A
O271        V276   1.908       .  S
O271        C280   1.266       .  A
O272        V276   1.899   1_545  S
O272        C279   1.263       .  A
O273        V276   1.902   1_545  S
O273        C278   1.265       .  A
O274        V276   1.907       .  S
O274        C277   1.266       .  A
V275        V276   2.082   1_545  T
C277        C356   1.497       .  S
C278        C379   1.476       .  S
C279        C369   1.505       .  S
C280        C346   1.498       .  S
O281        V289   1.913   1_455  S
O281        C291   1.268       .  A
O282        V289   1.914       .  S
O282        C292   1.268       .  A
O283        V289   1.909       .  S
O283        C293   1.266       .  A
O284        V289   1.909   1_455  S
O284        C294   1.267       .  A
O285        V290   1.902   1_455  S
O285        C294   1.265       .  A
O286        V290   1.901       .  S
O286        C293   1.266       .  A
O287        V290   1.906       .  S
O287        C292   1.266       .  A
O288        V290   1.905   1_455  S
O288        C291   1.265       .  A
V289        V290   2.077       .  T
C291        C336   1.499       .  S
C292        C386   1.497       .  S
C293        C396   1.497       .  S
C294        C326   1.496       .  S
N295        C436   1.448       .  S
C296        C429   1.498       .  S
C296        C297   1.384       .  A
C297        C298   1.374       .  A
C297        H300   1.082       .  S
C298        C299   1.379       .  A
C298        H301   1.082       .  S
C302        C315   1.483       .  S
C302        C303   1.407       .  A
C303        C304   1.396       .  A
C303        H308   1.083       .  S
C305        C306   1.411       .  A
C305        H309   1.077       .  S
C306        C322   1.514       .  S
C306        C307   1.418   1_556  A
C307        H310   1.079       .  S
N311        C315   1.361       .  A
N311        C312   1.364       .  A
C312        C339   1.493       .  S
C312        C313   1.385       .  A
C313        C314   1.376       .  A
C313        H316   1.082       .  S
C314        C315   1.380       .  A
C314        H317   1.082       .  S
N318        C322   1.368       .  A
N318        C319   1.367       .  A
N318        C349   1.448   1_556  S
C319        C359   1.496       .  S
C319        C320   1.378       .  A
C320        C321   1.366       .  A
C320        H323   1.083       .  S
C321        C322   1.392       .  A
C321        H324   1.080       .  S
C325        C326   1.420       .  A
C325        C330   1.414       .  A
C325       Br332   1.931       .  S
C326        C327   1.415       .  A
C327        C328   1.408       .  A
C327       Br334   1.934       .  S
C328        C329   1.412   1_556  A
C329        C330   1.407   1_554  A
C330       Br331   1.923   1_556  S
C335        C336   1.420       .  A
C335        C340   1.415       .  A
C335       Br342   1.932       .  S
C336        C337   1.415       .  A
C337        C338   1.411       .  A
C337       Br344   1.931       .  S
C338        C339   1.415       .  A
C338       Br343   1.937       .  S
C339        C340   1.408       .  A
C340       Br341   1.927       .  S
C345        C350   1.415       .  A
C345       Br352   1.935       .  S
C346        C347   1.416       .  A
C347        C348   1.410       .  A
C347       Br354   1.934       .  S
C348       Br353   1.932       .  S
C349        C350   1.399       .  A
C350       Br351   1.928   1_554  S
C355        C356   1.414       .  A
C355        C360   1.412       .  A
C355       Br362   1.934       .  S
C356        C357   1.418       .  A
C357        C358   1.416       .  A
C357       Br364   1.930   1_565  S
C358        C359   1.409       .  A
C358       Br363   1.925       .  S
C359        C360   1.417       .  A
C360       Br361   1.934       .  S
C365        C366   1.424       .  A
C365        C370   1.414       .  A
C365       Br372   1.939       .  S
C366        C367   1.408       .  A
C367        C368   1.407       .  A
C367       Br374   1.936       .  S
C368        C369   1.425       .  A
C368       Br373   1.937       .  S
C369        C370   1.425       .  A
C370       Br371   1.941       .  S
C375        C376   1.410       .  A
C375        C380   1.407       .  A
C375       Br382   1.932       .  S
C377       Br384   1.930       .  S
C378        C379   1.403       .  A
C378       Br383   1.936       .  S
C379        C380   1.409       .  A
C380       Br381   1.921       .  S
C385        C386   1.415       .  A
C385        C390   1.416       .  A
C385       Br392   1.933       .  S
C386        C387   1.411       .  A
C387        C388   1.414       .  A
C387       Br394   1.933       .  S
C388        C389   1.421       .  A
C388       Br393   1.936       .  S
C389        C390   1.413       .  A
C390       Br391   1.921       .  S
C395        C396   1.417       .  A
C395        C400   1.406       .  A
C395       Br402   1.935       .  S
C396        C397   1.423       .  A
C397        C398   1.415       .  A
C397       Br404   1.930       .  S
C398        C399   1.403       .  A
C399        C400   1.411       .  A
C400       Br401   1.935       .  S
C405        C406   1.414       .  A
C405        C410   1.421       .  A
C406        C407   1.421       .  A
C407        C408   1.418       .  A
C407       Br414   1.935       .  S
C408        C409   1.416       .  A
C408       Br413   1.934       .  S
C409        C410   1.420       .  A
C410       Br411   1.933       .  S
C415        C416   1.418       .  A
C415        C420   1.409       .  A
C415       Br422   1.934       .  S
C416        C417   1.423       .  A
C417        C418   1.409       .  A
C417       Br424   1.934       .  S
C418        C419   1.404       .  A
C418       Br423   1.925   1_556  S
C419        C420   1.413       .  A
C420       Br421   1.935       .  S
C425        C426   1.420       .  A
C425        C430   1.419       .  A
C425       Br432   1.929       .  S
C426        C427   1.412       .  A
C427        C428   1.412       .  A
C427       Br434   1.933       .  S
C428        C429   1.417       .  A
C429        C430   1.408       .  A
C430       Br431   1.928       .  S
C435        C436   1.403       .  A
C435        C440   1.413       .  A
C435       Br442   1.924       .  S
C436        C437   1.417       .  A
C437        C438   1.412       .  A
C437       Br444   1.931       .  S
C438        C439   1.414       .  A
C438       Br443   1.933       .  S
C439        C440   1.420       .  A
C440       Br441   1.931       .  S
