geometry optimzed in LAMMPS
_audit_creation_date              2020-12-01 
_audit_creation_method            'lammps2cif' 
_symmetry_space_group_name_H-M    'P1' 
_symmetry_Int_Tables_number       1 
_symmetry_cell_setting            triclinic 
loop_ 
_symmetry_equiv_pos_as_xyz 
  x,y,z 
_cell_length_a                    42.86399414 
_cell_length_b                    48.136689884807204 
_cell_length_c                    46.868086644855396 
_cell_angle_alpha                 90.28797477353626 
_cell_angle_beta                  89.62788955130243 
_cell_angle_gamma                 121.72571960701194 
loop_ 
_atom_site_label 
_atom_site_type_symbol 
_atom_site_fract_x 
_atom_site_fract_y 
_atom_site_fract_z 
_atom_site_charge 
C1          C  0.05891112  0.15845175  0.37494877     0.79400
N2          N  0.04940537  0.14151196  0.40002976    -0.78900
C3          C  0.03125894  0.10843647  0.39981250     0.81900
N4          N  0.02316121  0.09264165  0.37441713    -0.78800
C5          C  0.03219885  0.10875458  0.34922597     0.82000
N6          N  0.05044171  0.14193043  0.34949815    -0.80500
C7          C  0.07640859  0.42141952  0.37331281     0.79400
N8          N  0.06732126  0.43042432  0.39823844    -0.78900
C9          C  0.05060057  0.44771168  0.39781098     0.81900
N10         N  0.04329247  0.45604866  0.37236853    -0.78800
C11         C  0.05192628  0.44757579  0.34733249     0.82000
N12         N  0.06870061  0.43026455  0.34775577    -0.80500
C13         C  0.20477283  0.34894316  0.37465339     0.79400
N14         N  0.18450751  0.31574779  0.37328847    -0.78900
C15         C  0.14737237  0.29979359  0.37059727     0.81900
N16         N  0.13080582  0.31723743  0.36943604    -0.78800
C17         C  0.15095663  0.35027579  0.37090219     0.82000
N18         N  0.18783155  0.36606271  0.37385056    -0.80500
C19         C  0.36312182  0.42932780  0.37883595     0.79400
N20         N  0.38257513  0.43969562  0.40365570    -0.78900
C21         C  0.41953562  0.45993961  0.40286268     0.81900
N22         N  0.43677241  0.46942526  0.37753369    -0.78800
C23         C  0.41846026  0.45947964  0.35273972     0.82000
N24         N  0.38135058  0.43926492  0.35320090    -0.80500
Zr25       Zr  0.03387540  0.02256831  0.05355054     2.17500
O26         O  0.48640782  0.99998709  0.09251320    -0.52100
O27         O  0.09044628  0.05353350  0.07901028    -0.75300
O28         O  0.04140769  0.48409290  0.07752109    -0.82100
O29         O  0.02008097  0.09443948  0.04897716    -0.83800
O30         O  0.03417340  0.44500984  0.04616291    -0.79500
O31         O  0.02760503  0.06190347  0.07955649    -0.91100
O32         O  0.13949487  0.08067471  0.04945421    -0.77100
O33         O  0.07670671  0.01501976  0.02807320    -0.86600
O34         O  0.06973516  0.07223050  0.02826385    -0.86200
O35         O  0.49691270  0.47220846  0.02873187    -0.73000
O36         O  0.99036374  0.02838777  0.02689818    -0.85100
Zr37       Zr  0.03209167  0.02336140  0.44600764     2.26400
Zr38       Zr  0.04045465  0.46906767  0.99810684     2.06300
Zr39       Zr  0.02481712  0.07838636  0.49967613     2.10000
Zr40       Zr  0.11230963  0.06451757  0.00211511     1.78800
O41         O  0.97063504  0.08238424  0.49633661    -0.93900
O42         O  0.15713734  0.04803760  0.00435882    -0.41700
O43         O  0.06861682  0.07229804  0.47278593    -0.78400
O44         O  0.07700601  0.01903293  0.47218460    -0.97100
O45         O  0.00082868  0.47987162  0.47321584    -0.90400
O46         O  0.98877053  0.03019143  0.47170042    -0.93200
C47         C  0.12481049  0.07270027  0.07431283     1.00500
C48         C  0.02214003  0.08498697  0.07426629     1.13500
C49         C  0.03691647  0.45624701  0.07172696     1.04300
O50         O  0.09252919  0.46206796  0.00203665    -0.95400
O51         O  0.04905796  0.45450854  0.44897823    -0.91100
O52         O  0.03578625  0.48313013  0.41815632    -0.84300
C53         C  0.04451762  0.46208870  0.42359146     1.10900
O54         O  0.41650770  0.45327053  0.04262632    -0.97300
Zr55       Zr  0.45591471  0.48023392  0.50013293     1.88900
O56         O  0.47678532  0.99116034  0.42277439    -0.74000
O57         O  0.49943192  0.41099614  0.49709915    -0.53300
O58         O  0.42216211  0.42076325  0.49783487    -0.97900
O59         O  0.40896636  0.99517678  0.49879821    -0.55100
O60         O  0.42809266  0.46511669  0.45320073    -0.74500
C61         C  0.44247454  0.47270694  0.42826588     0.97800
O62         O  0.07795164  0.05019535  0.40859981    -0.63300
O63         O  0.06839848  0.13697910  0.00276039    -0.58100
O64         O  0.02554938  0.06228361  0.41978753    -0.94800
O65         O  0.02985674  0.10056191  0.45092911    -0.93200
O66         O  0.15066934  0.12390198  0.00312237    -0.93600
O67         O  0.14958790  0.09275399  0.45942122    -0.92400
C68         C  0.02817787  0.08942867  0.42544554     1.16700
H69         H  0.08260128  0.09067003  0.04097761     0.32600
H70         H  0.09349044  0.01707449  0.45938481     0.43500
H71         H  0.47562479  0.03382416  0.46061791     0.37000
H72         H  0.48322121  0.45380512  0.04136812     0.33500
H73         H  0.17930230  0.06703139  0.01273872     0.25300
H74         H  0.51373755  0.40118126  0.50292169     0.31200
H75         H  0.39781497  0.41435294  0.49010354     0.37100
H76         H  0.14020430  0.13131181  0.98838470     0.31600
H77         H  0.05201148  0.14569215  0.00373242     0.30500
H78         H  0.95223569  0.06468040  0.50878193     0.32100
H79         H  0.41273110  0.00705319  0.48067913     0.31100
H80         H  0.14505999  0.07453097  0.44671558     0.35100
H81         H  0.09312638  0.07328519  0.41474950     0.27800
H82         H  0.50159939  0.00313333  0.10940116     0.32100
H83         H  0.39275857  0.43479987  0.03574498     0.34900
H84         H  0.07969640  0.14129305  0.02189790     0.27500
H85         H  0.09444009  0.04169056  0.41041476     0.40400
H86         H  0.11123291  0.47860378  0.98894190     0.30500
H87         H  0.14783270  0.03112688  0.01941615     0.38100
H88         H  0.41640149  0.01209759  0.51375550     0.29900
H89         H  0.48022552  0.40190248  0.01120428     0.30000
H90         H  0.47122330  0.47899385  0.09007469     0.30200
Zr91       Zr  0.03025012  0.02072134  0.30324350     2.17500
O92         O  0.07286015  0.04114638  0.34298446    -0.52100
O93         O  0.47550225  0.99185872  0.33087109    -0.75300
O94         O  0.02714470  0.06265057  0.32878779    -0.82100
O95         O  0.04696640  0.45084847  0.29596362    -0.83800
O96         O  0.03004405  0.10022302  0.29798707    -0.79500
O97         O  0.04012090  0.48418957  0.32635525    -0.91100
O98         O  0.42621173  0.46422335  0.30188118    -0.77100
O99         O  0.99260004  0.02795848  0.27488376    -0.86600
O100        O  0.99281960  0.47022208  0.27735544    -0.86200
O101        O  0.06876877  0.06934482  0.27671084    -0.73000
O102        O  0.07300609  0.01372535  0.27623597    -0.85100
Zr103      Zr  0.03149334  0.02117029  0.19598973     2.26400
Zr104      Zr  0.02548053  0.07626476  0.25008198     2.06300
Zr105      Zr  0.03625932  0.46583997  0.24807751     2.10000
Zr106      Zr  0.45415214  0.48086994  0.25460378     1.78800
O107        O  0.08735944  0.45752029  0.24310377    -0.93900
O108        O  0.40794884  0.99524665  0.25720764    -0.41700
O109        O  0.49540197  0.47380352  0.22494194    -0.78400
O110        O  0.98795545  0.02705914  0.22320061    -0.97100
O111        O  0.06824539  0.07046615  0.22145579    -0.90400
O112        O  0.07316137  0.01231732  0.22133806    -0.93200
C113        C  0.44078306  0.47214024  0.32668793     1.00500
C114        C  0.04616612  0.46134436  0.32119875     1.13500
C115        C  0.02928757  0.08964623  0.32339368     1.04300
O116        O  0.97382876  0.08408954  0.25263924    -0.95400
O117        O  0.01882593  0.09396851  0.20201334    -0.91100
O118        O  0.02585897  0.06127695  0.17096239    -0.84300
C119        C  0.02074911  0.08459267  0.17654280     1.10900
O120        O  0.14734831  0.07712144  0.29043862    -0.97300
Zr121      Zr  0.10968333  0.06138609  0.24764444     1.88900
O122        O  0.08894407  0.05303866  0.17112270    -0.74000
O123        O  0.07067911  0.13453388  0.24584311    -0.53300
O124        O  0.14744422  0.12068351  0.25065263    -0.97900
O125        O  0.15490087  0.04532829  0.24347956    -0.55100
O126        O  0.13775955  0.07883641  0.20081025    -0.74500
C127        C  0.12333644  0.07173194  0.17596140     0.97800
O128        O  0.48628855  0.99756783  0.16001921    -0.63300
O129        O  0.49468237  0.40770825  0.25291961    -0.58100
O130        O  0.03670399  0.48154249  0.16856255    -0.94800
O131        O  0.03067569  0.44265870  0.19936459    -0.93200
O132        O  0.41748206  0.42137530  0.25278462    -0.93600
O133        O  0.41418220  0.46235144  0.21306109    -0.92400
C134        C  0.03329014  0.45406117  0.17392577     1.16700
H135        H  0.48283214  0.45348067  0.29299490     0.32600
H136        H  0.47146884  0.02948860  0.21273247     0.43500
H137        H  0.08875040  0.51146373  0.20746379     0.37000
H138        H  0.08302494  0.08767110  0.28933752     0.33500
H139        H  0.38471330  0.97467372  0.26178217     0.25300
H140        H  0.05680832  0.14531414  0.24988579     0.31200
H141        H  0.13493134  0.12846546  0.23831345     0.37100
H142        H  0.42985773  0.41520453  0.23844488     0.31600
H143        H  0.50999088  0.39789477  0.25224544     0.30500
H144        H  0.10688000  0.47459373  0.25528638     0.32100
H145        H  0.14957803  0.03325221  0.22522926     0.31100
H146        H  0.41454001  0.97731347  0.20418313     0.35100
H147        H  0.47363718  0.47456848  0.16392768     0.27800
H148        H  0.05756221  0.04021806  0.35924906     0.32100
H149        H  0.17292560  0.09158452  0.28372786     0.34900
H150        H  0.48457257  0.40345285  0.27255482     0.27500
H151        H  0.46880144  0.00469560  0.16386373     0.40400
H152        H  0.45259823  0.06500847  0.25483423     0.30500
H153        H  0.41395468  0.00859615  0.27476635     0.38100
H154        H  0.14775711  0.02843301  0.25832121     0.29900
H155        H  0.08697842  0.13992815  0.26251189     0.30000
H156        H  0.08979582  0.06472367  0.33920961     0.30200
C157        C  0.20200486  0.11751889  0.12573611     0.79400
N158        N  0.18300659  0.10625220  0.15081968    -0.78900
C159        C  0.14618651  0.08497042  0.15035754     0.81900
N160        N  0.12891505  0.07502622  0.12515303    -0.78800
C161        C  0.14702261  0.08549877  0.10018997     0.82000
N162        N  0.18386956  0.10684060  0.10029128    -0.80500
C163        C  0.99273104  0.12658899  0.12509218     0.79400
N164        N  0.00131899  0.11767347  0.09994628    -0.78900
C165        C  0.01738121  0.09988544  0.10014027     0.81900
N166        N  0.02453122  0.09111151  0.12546578    -0.78800
C167        C  0.01647610  0.09976032  0.15068982     0.82000
N168        N  0.00024974  0.11756618  0.15058302    -0.80500
C169        C  0.36020616  0.19604169  0.12729210     0.79400
N170        N  0.37976812  0.22925703  0.12793227    -0.78900
C171        C  0.41701187  0.24586691  0.12957039     0.81900
N172        N  0.43441193  0.22915687  0.13084226    -0.78800
C173        C  0.41494682  0.19611132  0.13083666     0.82000
N174        N  0.37795165  0.17966523  0.12874141    -0.80500
C175        C  0.50915649  0.38641886  0.12640785     0.79400
N176        N  0.51778978  0.40271275  0.10100712    -0.78900
C177        C  0.03274687  0.43660361  0.09726997     0.81900
N178        N  0.04054262  0.45195781  0.12287731    -0.78800
C179        C  0.03091677  0.43539507  0.14788956     0.82000
N180        N  0.51654772  0.40330888  0.15151412    -0.80500
C181        C  0.46909588  0.29654205  0.10950649    -0.21100
C182        C  0.43916109  0.28182472  0.12843489    -0.07600
C183        C  0.43269581  0.30152595  0.14689254     0.13800
C184        C  0.45642679  0.33554344  0.14593649    -0.21100
C185        C  0.48618587  0.35036475  0.12677933    -0.07700
C186        C  0.49259115  0.33057576  0.10827078     0.13200
C187        C  0.01575040  0.34667914  0.07648687    -0.24500
H188        H  0.47408059  0.28122857  0.09555052     0.14500
H189        H  0.45141687  0.35071534  0.16004831     0.14500
C190        C  0.40172299  0.28682994  0.16829611    -0.24400
H191        H  0.01717708  0.32814930  0.06328094     0.04700
H192        H  0.04319108  0.36294627  0.08606494     0.08000
H193        H  0.00901190  0.36087612  0.06192596     0.08000
H194        H  0.40431328  0.26969471  0.18241164     0.07900
H195        H  0.37500074  0.27353737  0.15708856     0.07900
H196        H  0.40183813  0.30581331  0.18194790     0.04700
C197        C  0.47628890  0.16447063  0.15056440    -0.21100
C198        C  0.47007883  0.14332440  0.12751262    -0.07600
C199        C  0.94175872  0.13333495  0.10708292     0.13200
C200        C  0.42671271  0.15639339  0.10823923    -0.21100
C201        C  0.43390486  0.17810978  0.13071829    -0.07700
C202        C  0.45860381  0.18203324  0.15235666     0.13200
C203        C  0.46546826  0.20390756  0.17770797    -0.24500
H204        H  0.49534820  0.16753873  0.16716346     0.14500
H205        H  0.40737708  0.15342159  0.09190013     0.14500
C206        C  0.92609624  0.10290136  0.08895857    -0.24400
H207        H  0.48425811  0.20291532  0.19330313     0.04700
H208        H  0.43914186  0.19612788  0.18879418     0.08000
H209        H  0.47816887  0.22961249  0.17062817     0.08000
H210        H  0.92021963  0.08175701  0.10244095     0.07900
H211        H  0.94564525  0.10627920  0.07172930     0.07900
H212        H  0.90006828  0.09698948  0.07858389     0.04700
C213        C  0.26261294  0.13422225  0.10512990    -0.21100
C214        C  0.24246239  0.13942482  0.12589127    -0.07600
C215        C  0.26139299  0.16489313  0.14612136     0.13200
C216        C  0.29990185  0.18389711  0.14528817    -0.21100
C217        C  0.31987291  0.17752874  0.12535157    -0.07700
C218        C  0.30102514  0.15263058  0.10479328     0.13200
C219        C  0.32116526  0.14563500  0.08214297    -0.24500
H220        H  0.24822708  0.11491023  0.08952866     0.14500
H221        H  0.31459497  0.20315109  0.16089424     0.14500
C222        C  0.24146090  0.17267439  0.16831594    -0.24400
H223        H  0.30199390  0.12690045  0.06670441     0.04700
H224        H  0.33722352  0.13621281  0.09204568     0.08000
H225        H  0.33984475  0.16828665  0.07006040     0.08000
H226        H  0.22700182  0.15214540  0.18358627     0.07900
H227        H  0.22146246  0.17728439  0.15782026     0.07900
H228        H  0.26063509  0.19476477  0.18088591     0.04700
C229        C  0.26185801  0.38659754  0.40055800    -0.21100
C230        C  0.24505618  0.36682664  0.37665518    -0.07600
C231        C  0.26686011  0.36701289  0.35395560     0.13200
C232        C  0.30515919  0.38721306  0.35561018    -0.21100
C233        C  0.32239900  0.40736485  0.37945123    -0.07700
C234        C  0.30020021  0.40669842  0.40249032     0.13200
C235        C  0.31604223  0.42772074  0.42877850    -0.24500
H236        H  0.24471169  0.38652940  0.41770841     0.14500
H237        H  0.32170742  0.38739217  0.33795244     0.14500
C238        C  0.24970005  0.34694488  0.32745207    -0.24400
H239        H  0.29428483  0.42523685  0.44348084     0.04700
H240        H  0.33318659  0.45383395  0.42261867     0.08000
H241        H  0.33264828  0.42028117  0.44087084     0.08000
H242        H  0.23131249  0.35394541  0.31760402     0.07900
H243        H  0.23357908  0.32061103  0.33299132     0.07900
H244        H  0.27069830  0.35068988  0.31135532     0.04700
C245        C  0.09907576  0.38987196  0.34773047    -0.21100
C246        C  0.09593881  0.40326767  0.37365090    -0.07600
C247        C  0.11224470  0.39948173  0.39860583     0.13200
C248        C  0.13040284  0.38234928  0.39673857    -0.21100
C249        C  0.13265263  0.36878628  0.37100789    -0.07700
C250        C  0.11729385  0.37280420  0.34614072     0.13200
C251        C  0.12088250  0.35974533  0.31782443    -0.24500
H252        H  0.08717275  0.39261773  0.32844285     0.14500
H253        H  0.14268740  0.37914316  0.41561372     0.14500
C254        C  0.11142099  0.41336392  0.42735960    -0.24400
H255        H  0.10802682  0.36569438  0.30031048     0.04700
H256        H  0.10730009  0.33281876  0.31886355     0.08000
H257        H  0.15034387  0.37059326  0.31250657     0.08000
H258        H  0.08272215  0.40177949  0.43513324     0.07900
H259        H  0.12440964  0.44024966  0.42584505     0.07900
H260        H  0.12673484  0.40868327  0.44373122     0.04700
C261        C  0.07509723  0.21136396  0.35346480    -0.21100
C262        C  0.08127230  0.19473292  0.37505529    -0.07600
C263        C  0.10985034  0.21301026  0.39496717     0.13200
C264        C  0.13139850  0.24716819  0.39244170    -0.21100
C265        C  0.12477758  0.26368385  0.37108094    -0.07700
C266        C  0.09616967  0.24553691  0.35136640     0.13200
C267        C  0.08831454  0.26186472  0.32754245    -0.24500
H268        H  0.05339348  0.19748734  0.33817879     0.14500
H269        H  0.15321543  0.26120398  0.40761053     0.14500
C270        C  0.11874536  0.19698153  0.41846305    -0.24400
H271        H  0.06681157  0.24376510  0.31295209     0.04700
H272        H  0.11359281  0.27724571  0.31476626     0.08000
H273        H  0.07827272  0.27713895  0.33647623     0.08000
H274        H  0.12439932  0.17875805  0.40925858     0.07900
H275        H  0.09555139  0.18492680  0.43381839     0.07900
H276        H  0.14333349  0.21500481  0.43070891     0.04700
C277        C  0.06101787  0.15873783  0.87592443     0.79400
N278        N  0.05227383  0.14208161  0.90109099    -0.78900
C279        C  0.03342417  0.10900912  0.90093267     0.81900
N280        N  0.02422918  0.09310761  0.87553490    -0.78800
C281        C  0.03280935  0.10921560  0.85030579     0.82000
N282        N  0.05153714  0.14231531  0.85052303    -0.80500
C283        C  0.07423426  0.41989127  0.87264955     0.79400
N284        N  0.06675038  0.42978437  0.89779600    -0.78900
C285        C  0.05089927  0.44777433  0.89761322     0.81900
N286        N  0.04338598  0.45618457  0.87222895    -0.78800
C287        C  0.05113207  0.44717215  0.84701862     0.82000
N288        N  0.06698954  0.42911223  0.84717588    -0.80500
C289        C  0.20375683  0.34919084  0.87688178     0.79400
N290        N  0.18366426  0.31597716  0.87634782    -0.78900
C291        C  0.14639523  0.29963914  0.87497420     0.81900
N292        N  0.12954964  0.31682948  0.87461844    -0.78800
C293        C  0.14932364  0.34985200  0.87477062     0.82000
N294        N  0.18634943  0.36593460  0.87613266    -0.80500
C295        C  0.36176747  0.42957320  0.87846210     0.79400
N296        N  0.38102625  0.43934415  0.90338797    -0.78900
C297        C  0.41811415  0.45858193  0.90260338     0.81900
N298        N  0.43538345  0.46779240  0.87726494    -0.78800
C299        C  0.41698819  0.45858315  0.85246555     0.82000
N300        N  0.37982927  0.43914688  0.85283642    -0.80500
Zr301      Zr  0.03410301  0.02421070  0.55297919     2.17500
O302        O  0.49243329  0.00106536  0.59419984    -0.52100
O303        O  0.09116750  0.05602029  0.57776257    -0.75300
O304        O  0.04062157  0.48501084  0.57665268    -0.82100
O305        O  0.01725978  0.09474080  0.54834653    -0.83800
O306        O  0.03750925  0.44751290  0.54538200    -0.79500
O307        O  0.02531547  0.06241005  0.57879965    -0.91100
O308        O  0.13994989  0.08278434  0.54797071    -0.77100
O309        O  0.07281811  0.01847588  0.52411409    -0.86600
O310        O  0.06866574  0.07423653  0.52789693    -0.86200
O311        O  0.49768350  0.47398217  0.52915725    -0.73000
O312        O  0.98959672  0.02890442  0.52658974    -0.85100
Zr313      Zr  0.03262128  0.02273474  0.94623622     2.26400
Zr314      Zr  0.04114728  0.47096633  0.49746730     2.06300
Zr315      Zr  0.02695912  0.07793536  0.00025133     2.10000
Zr316      Zr  0.11126356  0.06680609  0.50133874     1.78800
O317        O  0.97376133  0.08338965  0.99631584    -0.93900
O318        O  0.15650631  0.05079460  0.49936923    -0.41700
O319        O  0.07045224  0.07122799  0.97330698    -0.78400
O320        O  0.07655146  0.01721007  0.97268748    -0.97100
O321        O  0.99708635  0.47371403  0.96997375    -0.90400
O322        O  0.98987789  0.03008714  0.97210566    -0.93200
C323        C  0.12551251  0.07512343  0.57287410     1.00500
C324        C  0.01929656  0.08521376  0.57364211     1.13500
C325        C  0.03866320  0.45816249  0.57094061     1.04300
O326        O  0.09480615  0.46593500  0.49885177    -0.95400
O327        O  0.04817806  0.45335189  0.94899324    -0.91100
O328        O  0.03914187  0.48487563  0.91829950    -0.84300
C329        C  0.04559127  0.46239165  0.92359615     1.10900
O330        O  0.41860273  0.46112115  0.54346468    -0.97300
Zr331      Zr  0.45424711  0.47742682  0.00007491     1.88900
O332        O  0.47433879  0.98924102  0.92073225    -0.74000
O333        O  0.50037338  0.40747594  0.99751713    -0.53300
O334        O  0.42018933  0.41824273  0.99406978    -0.97900
O335        O  0.40483607  0.99161829  0.99946668    -0.55100
O336        O  0.42664640  0.46391042  0.95296900    -0.74500
C337        C  0.44112091  0.47098452  0.92801535     0.97800
O338        O  0.07432667  0.04529187  0.90547357    -0.63300
O339        O  0.06624646  0.13747902  0.50075717    -0.58100
O340        O  0.02683633  0.06248514  0.92071189    -0.94800
O341        O  0.03307297  0.10129301  0.95198939    -0.93200
O342        O  0.14990875  0.12620312  0.50345655    -0.93600
O343        O  0.15241304  0.08374168  0.96040179    -0.92400
C344        C  0.03045504  0.08996641  0.92648031     1.16700
H345        H  0.08121670  0.09266462  0.54066168     0.32600
H346        H  0.09280514  0.01503379  0.95976409     0.43500
H347        H  0.47172172  0.03093667  0.95878290     0.37000
H348        H  0.48419721  0.45559367  0.54183943     0.33500
H349        H  0.18011932  0.07105976  0.50375829     0.25300
H350        H  0.51414733  0.39834871  0.00608823     0.31200
H351        H  0.43564771  0.41379283  0.98140512     0.37100
H352        H  0.13369562  0.13362961  0.51055703     0.31600
H353        H  0.07856979  0.14218208  0.51949756     0.30500
H354        H  0.96450008  0.08144123  0.01606387     0.32100
H355        H  0.40898361  0.00500412  0.98225834     0.31100
H356        H  0.14245795  0.09390635  0.94808762     0.35100
H357        H  0.08836628  0.06925913  0.90835934     0.27800
H358        H  0.47808174  0.97720291  0.59074871     0.32100
H359        H  0.39516581  0.44134249  0.53782361     0.34900
H360        H  0.08571372  0.14191145  0.48673571     0.27500
H361        H  0.09270379  0.03906682  0.90847571     0.40400
H362        H  0.10868057  0.47860007  0.51583833     0.30500
H363        H  0.15120744  0.03677978  0.51632246     0.38100
H364        H  0.41183633  0.00716670  0.01556240     0.29900
H365        H  0.48158268  0.40548905  0.51282583     0.30000
H366        H  0.47948846  0.47950845  0.59396484     0.30200
Zr367      Zr  0.03350050  0.02393775  0.80331353     2.17500
O368        O  0.07868936  0.04699311  0.84149670    -0.52100
O369        O  0.47265158  0.99043725  0.82898199    -0.75300
O370        O  0.02887942  0.06394868  0.82977986    -0.82100
O371        O  0.04903025  0.45243882  0.79559320    -0.83800
O372        O  0.03021736  0.10095937  0.79902682    -0.79500
O373        O  0.03934661  0.48382724  0.82630665    -0.91100
O374        O  0.42441500  0.46416402  0.80179897    -0.77100
O375        O  0.98988234  0.03123729  0.77915698    -0.86600
O376        O  0.99740672  0.47380252  0.77632129    -0.86200
O377        O  0.07002343  0.07279885  0.77629499    -0.73000
O378        O  0.07706496  0.01850383  0.77570513    -0.85100
Zr379      Zr  0.03299921  0.02421931  0.69616722     2.26400
Zr380      Zr  0.02574923  0.07865985  0.75013879     2.06300
Zr381      Zr  0.04035922  0.46846459  0.74742522     2.10000
Zr382      Zr  0.45229341  0.47922599  0.75463480     1.78800
O383        O  0.09083140  0.45904752  0.74407134    -0.93900
O384        O  0.40651159  0.99418439  0.75627233    -0.41700
O385        O  0.49433888  0.47280883  0.72537482    -0.78400
O386        O  0.98883656  0.02919936  0.72346482    -0.97100
O387        O  0.06461950  0.06807616  0.72503311    -0.90400
O388        O  0.07629968  0.01662162  0.72038228    -0.93200
C389        C  0.43920852  0.47125285  0.82651039     1.00500
C390        C  0.04609172  0.46148475  0.82095959     1.13500
C391        C  0.02994537  0.09040665  0.82441633     1.04300
O392        O  0.97140369  0.08240996  0.75459837    -0.95400
O393        O  0.01745606  0.09526522  0.70181655    -0.91100
O394        O  0.02566378  0.06318531  0.67074689    -0.84300
C395        C  0.01934754  0.08580905  0.67630096     1.10900
O396        O  0.14934070  0.08884496  0.78884936    -0.97300
Zr397      Zr  0.11121033  0.06617348  0.74645176     1.88900
O398        O  0.08941816  0.05690623  0.66971581    -0.74000
O399        O  0.06646724  0.13772799  0.74648836    -0.53300
O400        O  0.14837270  0.12547004  0.74292989    -0.97900
O401        O  0.15664847  0.05017132  0.74699453    -0.55100
O402        O  0.13864605  0.08140648  0.69916164    -0.74500
C403        C  0.12404250  0.07487757  0.67437493     0.97800
O404        O  0.49036774  0.00043499  0.65688493    -0.63300
O405        O  0.49456222  0.40718976  0.75341106    -0.58100
O406        O  0.03969416  0.48455702  0.66775547    -0.94800
O407        O  0.03595435  0.44645336  0.69849277    -0.93200
O408        O  0.41320030  0.41999662  0.75681316    -0.93600
O409        O  0.41328625  0.45611825  0.71283177    -0.92400
C410        C  0.03756902  0.45760652  0.67310827     1.16700
H411        H  0.48219580  0.45294157  0.79273417     0.32600
H412        H  0.47252018  0.02979944  0.71107352     0.43500
H413        H  0.09249903  0.51310596  0.70609112     0.37000
H414        H  0.08414692  0.09128068  0.78879109     0.33500
H415        H  0.38429962  0.97439728  0.76371570     0.25300
H416        H  0.04994087  0.14625566  0.74815296     0.31200
H417        H  0.13214413  0.13294294  0.74991967     0.37100
H418        H  0.43045754  0.41220684  0.75709453     0.31600
H419        H  0.50918393  0.39743835  0.74814510     0.30500
H420        H  0.10703626  0.47395343  0.72886596     0.32100
H421        H  0.18040273  0.07059301  0.74323849     0.31100
H422        H  0.42343571  0.95110410  0.69806801     0.35100
H423        H  0.46987130  0.47293154  0.66662763     0.27800
H424        H  0.09233707  0.07091086  0.83844288     0.32100
H425        H  0.17470232  0.10338957  0.78172072     0.34900
H426        H  0.48887913  0.40207687  0.77391823     0.27500
H427        H  0.47183932  0.00627327  0.66106014     0.40400
H428        H  0.45918574  0.06978340  0.76736748     0.30500
H429        H  0.41484084  0.01005530  0.77220359     0.38100
H430        H  0.15202593  0.03696174  0.72951008     0.29900
H431        H  0.08061293  0.14450976  0.76447415     0.30000
H432        H  0.09676891  0.04080088  0.83665846     0.30200
C433        C  0.20340212  0.11873493  0.62395374     0.79400
N434        N  0.18423527  0.10807700  0.64909662    -0.78900
C435        C  0.14713363  0.08783875  0.64872484     0.81900
N436        N  0.12979896  0.07834045  0.62356596    -0.78800
C437        C  0.14797356  0.08804523  0.59858330     0.82000
N438        N  0.18506834  0.10830679  0.59855512    -0.80500
C439        C  0.99053609  0.12739925  0.62474493     0.79400
N440        N  0.99871418  0.11814406  0.59956899    -0.78900
C441        C  0.01416177  0.09983084  0.59968120     0.81900
N442        N  0.02135714  0.09106148  0.62501130    -0.78800
C443        C  0.01387349  0.10012485  0.65029097     0.82000
N444        N  0.99812335  0.11831798  0.65021035    -0.80500
C445        C  0.36253526  0.19696995  0.62495219     0.79400
N446        N  0.38175303  0.23021126  0.62522445    -0.78900
C447        C  0.41908485  0.24719709  0.62537311     0.81900
N448        N  0.43701795  0.23094318  0.62566920    -0.78800
C449        C  0.41812780  0.19789870  0.62626999     0.82000
N450        N  0.38090843  0.18101952  0.62558619    -0.80500
C451        C  0.51110240  0.38812324  0.62445753     0.79400
N452        N  0.52070571  0.40557081  0.59966250    -0.78900
C453        C  0.03587642  0.43910487  0.59659524     0.81900
N454        N  0.04411729  0.45500228  0.62198666    -0.78800
C455        C  0.03532619  0.43896197  0.64724490     0.82000
N456        N  0.51781214  0.40408253  0.65008527    -0.80500
C457        C  0.46613226  0.29849393  0.60231071    -0.21100
C458        C  0.44068674  0.28313287  0.62452134    -0.07600
C459        C  0.43847866  0.30211191  0.64646050     0.13800
C460        C  0.46218376  0.33611593  0.64588313    -0.21100
C461        C  0.48778151  0.35184853  0.62364784    -0.07700
C462        C  0.48930628  0.33263236  0.60121301     0.13200
C463        C  0.02593558  0.34777801  0.58490106    -0.24500
H464        H  0.46768993  0.28357922  0.58561731     0.14500
H465        H  0.46028786  0.35050938  0.66287822     0.14500
C466        C  0.41199749  0.28652560  0.67099562    -0.24400
H467        H  0.02877728  0.32852814  0.57429274     0.04700
H468        H  0.05151276  0.36389855  0.59696855     0.08000
H469        H  0.02270119  0.36204527  0.56792973     0.08000
H470        H  0.41734448  0.26916669  0.68218048     0.07900
H471        H  0.38341462  0.27323910  0.66295834     0.07900
H472        H  0.41466493  0.30495980  0.68675573     0.04700
C473        C  0.48440687  0.17085534  0.64521687    -0.21100
C474        C  0.47312259  0.14459194  0.62634755    -0.07600
C475        C  0.94449563  0.13989336  0.60440698     0.13200
C476        C  0.42601113  0.15358463  0.60835800    -0.21100
C477        C  0.43783473  0.18030911  0.62674208    -0.07700
C478        C  0.46744868  0.18910394  0.64544988     0.13200
C479        C  0.48069263  0.21704449  0.66625635    -0.24500
H480        H  0.50704906  0.17746018  0.65953910     0.14500
H481        H  0.40328337  0.14688687  0.59411175     0.14500
C482        C  0.93214548  0.11405227  0.58153632    -0.24400
H483        H  0.50249757  0.21906899  0.68039600     0.04700
H484        H  0.45755758  0.21331377  0.67994659     0.08000
H485        H  0.49240532  0.24046277  0.65456352     0.08000
H486        H  0.92345774  0.09008232  0.59134882     0.07900
H487        H  0.95469625  0.12086748  0.56601856     0.07900
H488        H  0.90851847  0.11121163  0.56930113     0.04700
C489        C  0.26425065  0.13477406  0.60343753    -0.21100
C490        C  0.24412774  0.14029258  0.62403099    -0.07600
C491        C  0.26331941  0.16613628  0.64389765     0.13200
C492        C  0.30193451  0.18491855  0.64313342    -0.21100
C493        C  0.32191043  0.17807826  0.62353704    -0.07700
C494        C  0.30277607  0.15304292  0.60310822     0.13200
C495        C  0.32278731  0.14589431  0.58047370    -0.24500
H496        H  0.24974608  0.11540399  0.58790949     0.14500
H497        H  0.31667842  0.20448339  0.65845994     0.14500
C498        C  0.24344920  0.17459262  0.66557852    -0.24400
H499        H  0.30356072  0.12730152  0.56497552     0.04700
H500        H  0.33857189  0.13622572  0.59041535     0.08000
H501        H  0.34170011  0.16853550  0.56845463     0.08000
H502        H  0.22887780  0.15445299  0.68119755     0.07900
H503        H  0.22352901  0.17900980  0.65467371     0.07900
H504        H  0.26266830  0.19697613  0.67778987     0.04700
C505        C  0.26148090  0.39599810  0.89535938    -0.21100
C506        C  0.24427107  0.36765659  0.87843935    -0.07600
C507        C  0.26604738  0.35951900  0.86182493     0.13200
C508        C  0.30439293  0.38021914  0.86234904    -0.21100
C509        C  0.32143264  0.40855579  0.87920598    -0.07700
C510        C  0.29972691  0.41656970  0.89595917     0.13200
C511        C  0.31650728  0.44754524  0.91339632    -0.24500
H512        H  0.24479458  0.40233809  0.90795779     0.14500
H513        H  0.32124525  0.37429460  0.84949226     0.14500
C514        C  0.24921219  0.32999634  0.84257841    -0.24400
H515        H  0.29523951  0.45085643  0.92365436     0.04700
H516        H  0.33354423  0.46896679  0.89943647     0.08000
H517        H  0.33371611  0.44688127  0.93062636     0.08000
H518        H  0.23026021  0.33119410  0.82730259     0.07900
H519        H  0.23401173  0.30738382  0.85548996     0.07900
H520        H  0.27036454  0.32851080  0.83003054     0.04700
C521        C  0.12068744  0.40901154  0.85325873    -0.21100
C522        C  0.09244974  0.40106232  0.87303753    -0.07600
C523        C  0.08227557  0.37543237  0.89271646     0.13200
C524        C  0.10132213  0.35909078  0.89259837    -0.21100
C525        C  0.13041527  0.36791953  0.87359898    -0.07700
C526        C  0.13988627  0.39276753  0.85332514     0.13200
C527        C  0.16922926  0.40141126  0.83112750    -0.24500
H528        H  0.12812804  0.42835058  0.83793998     0.14500
H529        H  0.09376495  0.33951141  0.90768534     0.14500
C530        C  0.05065052  0.36434831  0.91325052    -0.24400
H531        H  0.17144105  0.41998567  0.81590870     0.04700
H532        H  0.16265746  0.37926321  0.81873012     0.08000
H533        H  0.19630590  0.41162838  0.84151234     0.08000
H534        H  0.02552925  0.35840627  0.90137560     0.07900
H535        H  0.05718378  0.38369803  0.92925304     0.07900
H536        H  0.04466766  0.34216629  0.92515644     0.04700
C537        C  0.07017082  0.21141269  0.86112150    -0.21100
C538        C  0.08333402  0.19457707  0.87594984    -0.07600
C539        C  0.11786315  0.21206475  0.88944004     0.13200
C540        C  0.13793632  0.24629106  0.88843082    -0.21100
C541        C  0.12425936  0.26343362  0.87442044    -0.07700
C542        C  0.08995215  0.24559392  0.86023245     0.13200
C543        C  0.07414385  0.26193343  0.84335424    -0.24500
H544        H  0.04392715  0.19762271  0.85041972     0.14500
H545        H  0.16428630  0.25972915  0.89899296     0.14500
C546        C  0.13419045  0.19479784  0.90408023    -0.24400
H547        H  0.04888541  0.24389705  0.83178807     0.04700
H548        H  0.09440859  0.27859169  0.82724060     0.08000
H549        H  0.06645895  0.27570576  0.85782786     0.08000
H550        H  0.13602138  0.17797302  0.88882828     0.07900
H551        H  0.11697196  0.18071612  0.92261655     0.07900
H552        H  0.16223502  0.21228371  0.91211677     0.04700
C553        C  0.05563672  0.65833552  0.37281660     0.79400
N554        N  0.04806301  0.64179465  0.39798880    -0.78900
C555        C  0.03031589  0.60880800  0.39821598     0.81900
N556        N  0.02111055  0.59256510  0.37300976    -0.78800
C557        C  0.02864881  0.60824930  0.34762939     0.82000
N558        N  0.04639609  0.64140161  0.34754396    -0.80500
C559        C  0.07445941  0.91958720  0.37515623     0.79400
N560        N  0.06610741  0.92887389  0.40023799    -0.78900
C561        C  0.04854138  0.94545167  0.39984254     0.81900
N562        N  0.04000407  0.95284830  0.37440080    -0.78800
C563        C  0.04826147  0.94417093  0.34925380     0.82000
N564        N  0.06564585  0.92736377  0.34958803    -0.80500
C565        C  0.20433540  0.84923713  0.37269019     0.79400
N566        N  0.18527926  0.81605066  0.37112150    -0.78900
C567        C  0.14799653  0.79909324  0.37136424     0.81900
N568        N  0.13008399  0.81528761  0.37302447    -0.78800
C569        C  0.14876382  0.84830093  0.37393037     0.82000
N570        N  0.18600281  0.86520103  0.37429112    -0.80500
C571        C  0.36294200  0.93056873  0.37773786     0.79400
N572        N  0.38217500  0.94025489  0.40276946    -0.78900
C573        C  0.41928649  0.96018295  0.40228660     0.81900
N574        N  0.43675240  0.97002563  0.37709347    -0.78800
C575        C  0.41863151  0.96080241  0.35222334     0.82000
N576        N  0.38152943  0.94096644  0.35234312    -0.80500
Zr577      Zr  0.03347244  0.52301075  0.05229098     2.17500
O578        O  0.49142843  0.50090709  0.09603505    -0.52100
O579        O  0.08969676  0.55485262  0.07809993    -0.75300
O580        O  0.03993424  0.98271222  0.07884307    -0.82100
O581        O  0.01743456  0.59434542  0.04747356    -0.83800
O582        O  0.03760496  0.94542083  0.04754548    -0.79500
O583        O  0.02470245  0.56141418  0.07774450    -0.91100
O584        O  0.13875454  0.58253182  0.04868190    -0.77100
O585        O  0.07209476  0.51730970  0.02319905    -0.86600
O586        O  0.06874807  0.57337681  0.02795146    -0.86200
O587        O  0.49486362  0.97308989  0.02678264    -0.73000
O588        O  0.98979236  0.52864982  0.02562072    -0.85100
Zr589      Zr  0.03167462  0.52374818  0.44431272     2.26400
Zr590      Zr  0.04003426  0.96752057  0.99922797     2.06300
Zr591      Zr  0.02536298  0.57939483  0.49821107     2.10000
Zr592      Zr  0.11130616  0.56614655  0.00141548     1.78800
O593        O  0.97156619  0.58400331  0.49529279    -0.93900
O594        O  0.16074432  0.55528589  0.00194521    -0.41700
O595        O  0.06873023  0.57309618  0.47061860    -0.78400
O596        O  0.07711883  0.52008473  0.47040462    -0.97100
O597        O  0.99730331  0.97377426  0.47145707    -0.90400
O598        O  0.98888653  0.53141572  0.46992787    -0.93200
C599        C  0.12398465  0.57462591  0.07351052     1.00500
C600        C  0.01896464  0.58439977  0.07267682     1.13500
C601        C  0.03866512  0.95616695  0.07308369     1.04300
O602        O  0.09246378  0.96074886  0.00000057    -0.95400
O603        O  0.04688343  0.95231504  0.45090187    -0.91100
O604        O  0.03738187  0.98332293  0.41991703    -0.84300
C605        C  0.04371209  0.96077151  0.42548293     1.10900
O606        O  0.41547340  0.95500004  0.04068185    -0.97300
Zr607      Zr  0.45636425  0.98159845  0.49944994     1.88900
O608        O  0.47684347  0.49145103  0.42320434    -0.74000
O609        O  0.50031614  0.91145888  0.49401672    -0.53300
O610        O  0.42240294  0.92212859  0.49869822    -0.97900
O611        O  0.40629117  0.49107932  0.50052980    -0.55100
O612        O  0.42790472  0.96564752  0.45275314    -0.74500
C613        C  0.44229624  0.97273507  0.42780316     0.97800
O614        O  0.07779084  0.54697989  0.40656953    -0.63300
O615        O  0.07149053  0.63687450  0.00154836    -0.58100
O616        O  0.02677071  0.56369920  0.41837800    -0.94800
O617        O  0.02973926  0.60148124  0.44945838    -0.93200
O618        O  0.14298392  0.62559680  0.00130311    -0.93600
O619        O  0.15086098  0.59029917  0.45756298    -0.92400
C620        C  0.02845517  0.59043252  0.42397233     1.16700
H621        H  0.08122520  0.59161855  0.04089712     0.32600
H622        H  0.09369647  0.51811558  0.45772991     0.43500
H623        H  0.47384650  0.53275730  0.46137049     0.37000
H624        H  0.48103297  0.95465213  0.03936052     0.33500
H625        H  0.18213648  0.57544182  0.00974082     0.25300
H626        H  0.51434542  0.90139857  0.49986231     0.31200
H627        H  0.39751766  0.91553846  0.49213881     0.37100
H628        H  0.16892972  0.63315478  0.00530175     0.31600
H629        H  0.05716575  0.64714113  0.00592843     0.30500
H630        H  0.98111691  0.60752884  0.49819510     0.32100
H631        H  0.38422572  0.47024339  0.49457208     0.31100
H632        H  0.13960677  0.59986878  0.44597243     0.35100
H633        H  0.09000470  0.57094808  0.40872338     0.27800
H634        H  0.50456898  0.49666071  0.11095984     0.32100
H635        H  0.39036953  0.93920752  0.03384088     0.34900
H636        H  0.08559042  0.63986191  0.01913873     0.27500
H637        H  0.09682605  0.54227710  0.41200834     0.40400
H638        H  0.10859319  0.97477036  0.98433188     0.30500
H639        H  0.15377533  0.53874062  0.01708587     0.38100
H640        H  0.41154293  0.50605476  0.48432518     0.29900
H641        H  0.48026496  0.90263541  0.01228555     0.30000
H642        H  0.47197334  0.97606827  0.08936441     0.30200
Zr643      Zr  0.02731930  0.52047779  0.30201045     2.17500
O644        O  0.06427868  0.53943587  0.34506625    -0.52100
O645        O  0.47517741  0.49129496  0.33117024    -0.75300
O646        O  0.02300909  0.56197836  0.32718111    -0.82100
O647        O  0.04497170  0.94887235  0.29773960    -0.83800
O648        O  0.02531505  0.59915885  0.29633309    -0.79500
O649        O  0.03743615  0.98157028  0.32848934    -0.91100
O650        O  0.42628462  0.96539954  0.30169226    -0.77100
O651        O  0.98808622  0.52556458  0.27371538    -0.86600
O652        O  0.99374895  0.97079672  0.27840879    -0.86200
O653        O  0.06418659  0.56958655  0.27556159    -0.73000
O654        O  0.07168382  0.51567979  0.27499719    -0.85100
Zr655      Zr  0.02930860  0.52052834  0.19462238     2.26400
Zr656      Zr  0.01914900  0.57387172  0.24876194     2.06300
Zr657      Zr  0.03564309  0.96442369  0.24938008     2.10000
Zr658      Zr  0.45384867  0.98003003  0.25447344     1.78800
O659        O  0.08380520  0.95218866  0.24491577    -0.93900
O660        O  0.40908393  0.49706229  0.25743049    -0.41700
O661        O  0.49510185  0.97320937  0.22471441    -0.78400
O662        O  0.98404783  0.52433376  0.22162233    -0.97100
O663        O  0.06339922  0.57013223  0.22027516    -0.90400
O664        O  0.07271955  0.51419038  0.22018488    -0.93200
C665        C  0.44103402  0.97324792  0.32638326     1.00500
C666        C  0.04314343  0.95855127  0.32315065     1.13500
C667        C  0.02498997  0.58886774  0.32177640     1.04300
O668        O  0.96345616  0.57547698  0.25304444    -0.95400
O669        O  0.01336223  0.59144561  0.20044421    -0.91100
O670        O  0.02113461  0.55908145  0.16944790    -0.84300
C671        C  0.01561684  0.58215985  0.17502028     1.10900
O672        O  0.14288250  0.58597497  0.28989878    -0.97300
Zr673      Zr  0.10667794  0.56386580  0.24658873     1.88900
O674        O  0.08676414  0.55505666  0.16994040    -0.74000
O675        O  0.05809891  0.63297325  0.24346604    -0.53300
O676        O  0.14208498  0.62329537  0.24488303    -0.97900
O677        O  0.15536836  0.55194990  0.24700616    -0.55100
O678        O  0.13522171  0.58120040  0.19994609    -0.74500
C679        C  0.12109043  0.57440510  0.17501599     0.97800
O680        O  0.48690894  0.49841839  0.16059221    -0.63300
O681        O  0.49442207  0.90865364  0.25681359    -0.58100
O682        O  0.03726783  0.98161665  0.16969999    -0.94800
O683        O  0.03238405  0.94306697  0.20041108    -0.93200
O684        O  0.41736072  0.92043088  0.25457572    -0.93600
O685        O  0.41483173  0.95856817  0.21244651    -0.92400
C686        C  0.03489808  0.95460199  0.17507571     1.16700
H687        H  0.48361154  0.95389596  0.29318361     0.32600
H688        H  0.47309152  0.53055171  0.21300049     0.43500
H689        H  0.08841267  0.00876963  0.20844851     0.37000
H690        H  0.07783222  0.58810896  0.28811416     0.33500
H691        H  0.38570495  0.47679079  0.26236195     0.25300
H692        H  0.04233195  0.64142780  0.24922253     0.31200
H693        H  0.12520328  0.62922804  0.23655198     0.37100
H694        H  0.41934275  0.91387015  0.27414348     0.31600
H695        H  0.47897572  0.90218864  0.23951682     0.30500
H696        H  0.10337581  0.96786247  0.25790032     0.32100
H697        H  0.15160210  0.53892601  0.22953137     0.31100
H698        H  0.42392455  0.45211793  0.20039943     0.35100
H699        H  0.47205844  0.97388632  0.16424761     0.27800
H700        H  0.04673468  0.53692092  0.36016694     0.32100
H701        H  0.16861572  0.59996567  0.28335794     0.34900
H702        H  0.50895060  0.89819953  0.25457049     0.27500
H703        H  0.46876446  0.50449947  0.16551716     0.40400
H704        H  0.49158192  0.61344377  0.25923499     0.30500
H705        H  0.41566335  0.51082195  0.27477394     0.38100
H706        H  0.14878505  0.53626002  0.26284733     0.29900
H707        H  0.07652997  0.64016711  0.25883628     0.30000
H708        H  0.08111894  0.56330185  0.34274443     0.30200
C709        C  0.20062362  0.62100638  0.12524925     0.79400
N710        N  0.18128686  0.61003144  0.15030244    -0.78900
C711        C  0.14438521  0.58849808  0.14961671     0.81900
N712        N  0.12751632  0.57816045  0.12431739    -0.78800
C713        C  0.14590519  0.58829638  0.09945978     0.82000
N714        N  0.18274566  0.60975645  0.09974235    -0.80500
C715        C  0.98965878  0.62589627  0.12396184     0.79400
N716        N  0.99826693  0.61715884  0.09869785    -0.78900
C717        C  0.01345444  0.59862066  0.09873151     0.81900
N718        N  0.01973661  0.58900569  0.12397439    -0.78800
C719        C  0.01160695  0.59746864  0.14924117     0.82000
N720        N  0.99632501  0.61599545  0.14930742    -0.80500
C721        C  0.35991468  0.69593444  0.12676139     0.79400
N722        N  0.37954293  0.72917471  0.12708543    -0.78900
C723        C  0.41685255  0.74585453  0.12717584     0.81900
N724        N  0.43437377  0.72924141  0.12715932    -0.78800
C725        C  0.41523901  0.69618463  0.12768033     0.82000
N726        N  0.37796951  0.67965280  0.12721607    -0.80500
C727        C  0.50773348  0.88687129  0.12511550     0.79400
N728        N  0.51577040  0.90363019  0.09996264    -0.78900
C729        C  0.03597582  0.93720244  0.09869038     0.81900
N730        N  0.04341199  0.95280613  0.12418455    -0.78800
C731        C  0.03362413  0.93638288  0.14927350     0.82000
N732        N  0.51568513  0.90341549  0.15048266    -0.80500
C733        C  0.46622631  0.79712500  0.10550380    -0.21100
C734        C  0.43886310  0.78185187  0.12648229    -0.07600
C735        C  0.43484459  0.80101527  0.14728220     0.13800
C736        C  0.45830165  0.83508844  0.14654074    -0.21100
C737        C  0.48521529  0.85062455  0.12514211    -0.07700
C738        C  0.48914013  0.83126993  0.10425544     0.13200
C739        C  0.02101653  0.84642806  0.08162681    -0.24500
H740        H  0.46941982  0.78216353  0.08980420     0.14500
H741        H  0.45505740  0.84972772  0.16254012     0.14500
C742        C  0.40655000  0.78562034  0.17070996    -0.24400
H743        H  0.02277891  0.82740542  0.06950957     0.04700
H744        H  0.04776946  0.86240779  0.09229715     0.08000
H745        H  0.01598413  0.86080482  0.06593044     0.08000
H746        H  0.41078528  0.76815258  0.18290027     0.07900
H747        H  0.37861573  0.77252311  0.16141035     0.07900
H748        H  0.40825836  0.80416241  0.18588948     0.04700
C749        C  0.48453201  0.67102403  0.14246713    -0.21100
C750        C  0.46939911  0.64187157  0.12692262    -0.07600
C751        C  0.94138948  0.63609238  0.10535016     0.13200
C752        C  0.41935802  0.64867913  0.11269501    -0.21100
C753        C  0.43475825  0.67824019  0.12783791    -0.07700
C754        C  0.46794539  0.68957552  0.14295472     0.13200
C755        C  0.48569579  0.72059038  0.16036763    -0.24500
H756        H  0.50984194  0.67954803  0.15402063     0.14500
H757        H  0.39409043  0.63994002  0.10108002     0.14500
C758        C  0.92687691  0.60796821  0.08457108    -0.24400
H759        H  0.50985383  0.72416766  0.17230709     0.04700
H760        H  0.46574888  0.71967795  0.17615051     0.08000
H761        H  0.49553903  0.74204975  0.14620424     0.08000
H762        H  0.91960997  0.58520731  0.09608097     0.07900
H763        H  0.94771737  0.61317145  0.06788256     0.07900
H764        H  0.90184535  0.60367871  0.07354357     0.04700
C765        C  0.26089648  0.63395730  0.10653301    -0.21100
C766        C  0.24134454  0.64200700  0.12545317    -0.07600
C767        C  0.26107770  0.66922933  0.14385556     0.13200
C768        C  0.29975913  0.68678583  0.14347292    -0.21100
C769        C  0.31918267  0.67753942  0.12550553    -0.07700
C770        C  0.29935082  0.65110792  0.10640677     0.13200
C771        C  0.31839646  0.64116361  0.08527528    -0.24500
H772        H  0.24589728  0.61342253  0.09215247     0.14500
H773        H  0.31493094  0.70745667  0.15768880     0.14500
C774        C  0.24169634  0.68049340  0.16327296    -0.24400
H775        H  0.29868424  0.62192381  0.07043236     0.04700
H776        H  0.33284590  0.63108700  0.09668004     0.08000
H777        H  0.33824966  0.66256738  0.07229900     0.08000
H778        H  0.22522561  0.66152021  0.17945619     0.07900
H779        H  0.22347606  0.68555272  0.15053733     0.07900
H780        H  0.26140675  0.70321683  0.17487895     0.04700
C781        C  0.26127138  0.88641292  0.39876526    -0.21100
C782        C  0.24471244  0.86814120  0.37411109    -0.07600
C783        C  0.26674590  0.86994053  0.35091167     0.13200
C784        C  0.30506717  0.89015486  0.35294331    -0.21100
C785        C  0.32209574  0.90870838  0.37769080    -0.07700
C786        C  0.29955783  0.90657804  0.40102868     0.13200
C787        C  0.31497913  0.92610490  0.42809332    -0.24500
H788        H  0.24394556  0.88500107  0.41636511     0.14500
H789        H  0.32177385  0.89147369  0.33493599     0.14500
C790        C  0.24982908  0.85140293  0.32369601    -0.24400
H791        H  0.29299888  0.92265070  0.44303975     0.04700
H792        H  0.33198101  0.95254270  0.42300814     0.08000
H793        H  0.33159918  0.91815233  0.43944900     0.08000
H794        H  0.23102618  0.85850802  0.31486858     0.07900
H795        H  0.23423868  0.82481014  0.32806341     0.07900
H796        H  0.27093356  0.85644156  0.30724639     0.04700
C797        C  0.07933757  0.87310168  0.35939080    -0.21100
C798        C  0.09379297  0.90173447  0.37557517    -0.07600
C799        C  0.12636080  0.91283060  0.39128517     0.13200
C800        C  0.14353316  0.89477755  0.39039751    -0.21100
C801        C  0.12877644  0.86575051  0.37451491    -0.07700
C802        C  0.09607219  0.85472621  0.35882574     0.13200
C803        C  0.07903601  0.82428105  0.34065510    -0.24500
H804        H  0.05444909  0.86486737  0.34732502     0.14500
H805        H  0.16858241  0.90331676  0.40231975     0.14500
C806        C  0.14390869  0.94423926  0.40812543    -0.24400
H807        H  0.05525915  0.82099972  0.32834645     0.04700
H808        H  0.06878870  0.80239002  0.35433732     0.08000
H809        H  0.09953762  0.82575390  0.32513701     0.08000
H810        H  0.12562865  0.94220260  0.42591625     0.07900
H811        H  0.14932137  0.96475000  0.39396038     0.07900
H812        H  0.17042663  0.95014468  0.41756795     0.04700
C813        C  0.10118348  0.71036934  0.34892317    -0.21100
C814        C  0.07863159  0.69464298  0.37280969    -0.07600
C815        C  0.07968990  0.71394394  0.39627572     0.13200
C816        C  0.10352161  0.74791641  0.39526312    -0.21100
C817        C  0.12631867  0.76322846  0.37168783    -0.07700
C818        C  0.12492898  0.74441718  0.34808381     0.13200
C819        C  0.14761079  0.76027143  0.32172953    -0.24500
H820        H  0.10061034  0.69599162  0.33084604     0.14500
H821        H  0.10427965  0.76281731  0.41300144     0.14500
C822        C  0.05515748  0.69952702  0.42211744    -0.24400
H823        H  0.14224734  0.74204743  0.30481885     0.04700
H824        H  0.17714401  0.77315942  0.32713913     0.08000
H825        H  0.14106614  0.77802312  0.31299908     0.08000
H826        H  0.06300368  0.68461260  0.43457474     0.07900
H827        H  0.02607703  0.68436594  0.41535696     0.07900
H828        H  0.05744933  0.71875449  0.43673027     0.04700
C829        C  0.05910704  0.65871230  0.87435997     0.79400
N830        N  0.05042109  0.64198978  0.89950663    -0.78900
C831        C  0.03256733  0.60895160  0.89934312     0.81900
N832        N  0.02410392  0.59307182  0.87393521    -0.78800
C833        C  0.03241326  0.60913206  0.84870169     0.82000
N834        N  0.05023075  0.64221797  0.84895224    -0.80500
C835        C  0.07160969  0.91837001  0.87378294     0.79400
N836        N  0.06210820  0.92637795  0.89898352    -0.78900
C837        C  0.04555317  0.94375656  0.89908006     0.81900
N838        N  0.03855935  0.95291142  0.87386855    -0.78800
C839        C  0.04757382  0.94518688  0.84859296     0.82000
N840        N  0.06443450  0.92803178  0.84854038    -0.80500
C841        C  0.20229965  0.84902655  0.87329275     0.79400
N842        N  0.18219317  0.81583447  0.87221207    -0.78900
C843        C  0.14501548  0.79967602  0.86987296     0.81900
N844        N  0.12828755  0.81695980  0.86877274    -0.78800
C845        C  0.14830506  0.84998877  0.86987594     0.82000
N846        N  0.18516710  0.86594494  0.87254175    -0.80500
C847        C  0.36036993  0.92971268  0.87601063     0.79400
N848        N  0.37971436  0.93927163  0.90093206    -0.78900
C849        C  0.41683589  0.95842412  0.90023972     0.81900
N850        N  0.43416431  0.96764166  0.87495907    -0.78800
C851        C  0.41586532  0.95854548  0.85013275     0.82000
N852        N  0.37866194  0.93933875  0.85043003    -0.80500
Zr853      Zr  0.03482259  0.52509470  0.55127165     2.17500
O854        O  0.49505968  0.50346596  0.59655542    -0.52100
O855        O  0.09200560  0.55562165  0.57614939    -0.75300
O856        O  0.04020755  0.98417037  0.57836672    -0.82100
O857        O  0.01737028  0.59508062  0.54715399    -0.83800
O858        O  0.03770696  0.94661927  0.54745933    -0.79500
O859        O  0.02772631  0.56404883  0.57745926    -0.91100
O860        O  0.14053526  0.58339569  0.54629237    -0.77100
O861        O  0.07351224  0.51935767  0.52222448    -0.86600
O862        O  0.06921224  0.57522751  0.52643836    -0.86200
O863        O  0.49846316  0.97533930  0.52794973    -0.73000
O864        O  0.99005809  0.52988863  0.52522185    -0.85100
Zr865      Zr  0.03266798  0.52359191  0.94510354     2.26400
Zr866      Zr  0.04130773  0.96989162  0.49952851     2.06300
Zr867      Zr  0.02612295  0.57852854  0.99907186     2.10000
Zr868      Zr  0.11149300  0.56796331  0.49950992     1.78800
O869        O  0.97541522  0.58740262  0.99480886    -0.93900
O870        O  0.16160438  0.55803210  0.49683493    -0.41700
O871        O  0.06968453  0.57224634  0.97209657    -0.78400
O872        O  0.07699843  0.51875713  0.97174252    -0.97100
O873        O  0.99702927  0.97317174  0.97141347    -0.90400
O874        O  0.98948307  0.53056311  0.97083682    -0.93200
C875        C  0.12627026  0.57510607  0.57126329     1.00500
C876        C  0.02063564  0.58621837  0.57242514     1.13500
C877        C  0.03848254  0.95734486  0.57290895     1.04300
O878        O  0.09535271  0.96547519  0.50070560    -0.95400
O879        O  0.04480371  0.94998738  0.95035135    -0.91100
O880        O  0.03581789  0.98186301  0.92005308    -0.84300
C881        C  0.04140986  0.95881945  0.92513704     1.10900
O882        O  0.41827874  0.96229627  0.54230753    -0.97300
Zr883      Zr  0.45252322  0.97848463  0.99774839     1.88900
O884        O  0.47558471  0.48911817  0.92293312    -0.74000
O885        O  0.49863929  0.90839743  0.99692578    -0.53300
O886        O  0.41609700  0.91927727  0.99232101    -0.97900
O887        O  0.40622267  0.48981974  0.00502245    -0.55100
O888        O  0.42524681  0.96398180  0.95058554    -0.74500
C889        C  0.43982727  0.97097464  0.92569020     0.97800
O890        O  0.07745977  0.54990042  0.90674142    -0.63300
O891        O  0.06733483  0.63840168  0.50028110    -0.58100
O892        O  0.02538208  0.56231309  0.91936791    -0.94800
O893        O  0.03251068  0.60158220  0.95051654    -0.93200
O894        O  0.14177463  0.62729644  0.50097713    -0.93600
O895        O  0.15119477  0.58733631  0.95963214    -0.92400
C896        C  0.02951644  0.59001734  0.92502861     1.16700
H897        H  0.08191488  0.59359341  0.53924183     0.32600
H898        H  0.09373504  0.51698839  0.95906627     0.43500
H899        H  0.47278293  0.53011822  0.96145434     0.37000
H900        H  0.48458235  0.95691159  0.54051579     0.33500
H901        H  0.18263984  0.57724392  0.50609146     0.25300
H902        H  0.51359190  0.89947390  0.00340464     0.31200
H903        H  0.42746643  0.91444811  0.97611863     0.37100
H904        H  0.16820685  0.63535886  0.50287518     0.31600
H905        H  0.05224211  0.64702577  0.50739067     0.30500
H906        H  0.98699756  0.61139313  0.99608441     0.32100
H907        H  0.38428893  0.47096705  0.99624969     0.31100
H908        H  0.14317429  0.60040477  0.94931805     0.35100
H909        H  0.09122666  0.57343694  0.91163799     0.27800
H910        H  0.51177610  0.50660472  0.61238313     0.32100
H911        H  0.39325356  0.94606213  0.53560495     0.34900
H912        H  0.08416954  0.64205461  0.51619157     0.27500
H913        H  0.09549474  0.54325087  0.90964466     0.40400
H914        H  0.11021203  0.97816419  0.48400109     0.30500
H915        H  0.15453735  0.53976305  0.51017834     0.38100
H916        H  0.41337516  0.50812351  0.99169130     0.29900
H917        H  0.48150982  0.90510367  0.50912017     0.30000
H918        H  0.47457017  0.00783793  0.59092783     0.30200
Zr919      Zr  0.03301624  0.52360426  0.80157463     2.17500
O920        O  0.07449950  0.54657685  0.84220755    -0.52100
O921        O  0.47369262  0.48953184  0.83099105    -0.75300
O922        O  0.02618114  0.56286550  0.82782450    -0.82100
O923        O  0.04736386  0.95219206  0.79742023    -0.83800
O924        O  0.03206512  0.60191202  0.79735043    -0.79500
O925        O  0.03813112  0.98359005  0.82857182    -0.91100
O926        O  0.42410077  0.96258243  0.79943062    -0.77100
O927        O  0.99506914  0.53061365  0.77341591    -0.86600
O928        O  0.99743957  0.97423601  0.77803205    -0.86200
O929        O  0.07147453  0.57251197  0.77511791    -0.73000
O930        O  0.07689061  0.51793483  0.77448796    -0.85100
Zr931      Zr  0.03421963  0.52415265  0.69444797     2.26400
Zr932      Zr  0.02770277  0.57906403  0.74883611     2.06300
Zr933      Zr  0.04020034  0.96893249  0.74906945     2.10000
Zr934      Zr  0.45271715  0.97943082  0.75255094     1.78800
O935        O  0.09339984  0.96362475  0.74423192    -0.93900
O936        O  0.40735331  0.49563622  0.75409361    -0.41700
O937        O  0.49392189  0.97225513  0.72293426    -0.78400
O938        O  0.99068056  0.52997279  0.72175413    -0.97100
O939        O  0.07039212  0.57366448  0.71982001    -0.90400
O940        O  0.07710897  0.51629809  0.71913714    -0.93200
C941        C  0.43836174  0.97106208  0.82426994     1.00500
C942        C  0.04406365  0.96080836  0.82288747     1.13500
C943        C  0.02953317  0.59035880  0.82267152     1.04300
O944        O  0.97667322  0.58752860  0.75346795    -0.95400
O945        O  0.01939598  0.59557561  0.70056662    -0.91100
O946        O  0.02833174  0.56411597  0.66927413    -0.84300
C947        C  0.02186837  0.58662082  0.67500212     1.10900
O948        O  0.15257675  0.58680682  0.78702438    -0.97300
Zr949      Zr  0.11283611  0.56559509  0.74539029     1.88900
O950        O  0.09049942  0.55598930  0.66816109    -0.74000
O951        O  0.07254464  0.63731820  0.74371871    -0.53300
O952        O  0.15092910  0.62496483  0.74425413    -0.97900
O953        O  0.15847658  0.54989131  0.74326177    -0.55100
O954        O  0.13941037  0.58213090  0.69779579    -0.74500
C955        C  0.12488884  0.57494393  0.67294713     0.97800
O956        O  0.48532583  0.49618504  0.66107332    -0.63300
O957        O  0.48263515  0.90787148  0.75327719    -0.58100
O958        O  0.03910355  0.98478857  0.66959753    -0.94800
O959        O  0.03414491  0.94626054  0.70038555    -0.93200
O960        O  0.41627689  0.91990723  0.75016971    -0.93600
O961        O  0.41359827  0.96143520  0.71052283    -0.92400
C962        C  0.03626718  0.95754151  0.67501790     1.16700
H963        H  0.47996685  0.95141939  0.79176169     0.32600
H964        H  0.47135286  0.52924841  0.71342914     0.43500
H965        H  0.09173310  0.01353733  0.70730246     0.37000
H966        H  0.08554146  0.59078014  0.78784545     0.33500
H967        H  0.38347950  0.47512317  0.75721991     0.25300
H968        H  0.05796980  0.64779750  0.74533026     0.31200
H969        H  0.13845589  0.63169172  0.73074248     0.37100
H970        H  0.39056986  0.91409349  0.75272567     0.31600
H971        H  0.47295734  0.90231331  0.73359584     0.30500
H972        H  0.08293084  0.93984561  0.74213403     0.32100
H973        H  0.15800600  0.54270984  0.72335449     0.31100
H974        H  0.41846202  0.47511653  0.70107187     0.35100
H975        H  0.47654995  0.97637093  0.65893265     0.27800
H976        H  0.08812332  0.57055672  0.83958470     0.32100
H977        H  0.17791406  0.59944520  0.77935920     0.34900
H978        H  0.49318159  0.89418964  0.75675167     0.27500
H979        H  0.46906080  0.50485927  0.66368389     0.40400
H980        H  0.46043825  0.57285115  0.77622612     0.30500
H981        H  0.41171753  0.50820170  0.77196387     0.38100
H982        H  0.14776646  0.52961244  0.75466407     0.29900
H983        H  0.08724064  0.64370611  0.76142027     0.30000
H984        H  0.09329034  0.54083439  0.83895401     0.30200
C985        C  0.20353139  0.62081284  0.62261166     0.79400
N986        N  0.18452837  0.60982091  0.64773294    -0.78900
C987        C  0.14774259  0.58828332  0.64730226     0.81900
N988        N  0.13056118  0.57788420  0.62210073    -0.78800
C989        C  0.14865568  0.58810723  0.59709879     0.82000
N990        N  0.18546821  0.60967463  0.59716693    -0.80500
C991        C  0.99056505  0.62685134  0.62427770     0.79400
N992        N  0.99877322  0.61796551  0.59889177    -0.78900
C993        C  0.01557309  0.60073554  0.59860996     0.81900
N994        N  0.02394179  0.59256624  0.62376189    -0.78800
C995        C  0.01623784  0.60110324  0.64920873     0.82000
N996        N  0.99924389  0.61824232  0.64950015    -0.80500
C997        C  0.36184066  0.69679415  0.62527373     0.79400
N998        N  0.38159063  0.72997241  0.62592442    -0.78900
C999        C  0.41879133  0.74640047  0.62731998     0.81900
N1000       N  0.43609899  0.72961572  0.62831401    -0.78800
C1001       C  0.41652163  0.69654112  0.62846113     0.82000
N1002       N  0.37944793  0.68025324  0.62663739    -0.80500
C1003       C  0.50852818  0.88705950  0.62420775     0.79400
N1004       N  0.51701002  0.90414806  0.59921029    -0.78900
C1005       C  0.03546458  0.93842039  0.59875154     0.81900
N1006       N  0.04315523  0.95449262  0.62401733    -0.78800
C1007       C  0.03397419  0.93864997  0.64935309     0.82000
N1008       N  0.51663481  0.90326942  0.64968293    -0.80500
C1009       C  0.46745701  0.79741128  0.60507172    -0.21100
C1010       C  0.44073653  0.78226719  0.62648886    -0.07600
C1011       C  0.43639788  0.80144934  0.64703636     0.13800
C1012       C  0.45940171  0.83549809  0.64589793    -0.21100
C1013       C  0.48582759  0.85091799  0.62414458    -0.07700
C1014       C  0.48955251  0.83154426  0.60319281     0.13200
C1015       C  0.03048011  0.84746943  0.59301992    -0.24500
H1016       H  0.47055314  0.78236442  0.58940553     0.14500
H1017       H  0.45616340  0.85019124  0.66184741     0.14500
C1018       C  0.40809209  0.78611371  0.67047469    -0.24400
H1019       H  0.03479881  0.82836176  0.58398356     0.04700
H1020       H  0.05420519  0.86359145  0.60689850     0.08000
H1021       H  0.02960499  0.86187257  0.57497673     0.08000
H1022       H  0.41262961  0.76902159  0.68298017     0.07900
H1023       H  0.38018224  0.77259260  0.66113539     0.07900
H1024       H  0.40942793  0.80473741  0.68535885     0.04700
C1025       C  0.48137699  0.66815654  0.64734124    -0.21100
C1026       C  0.47080324  0.64286149  0.62749756    -0.07600
C1027       C  0.94423813  0.63956195  0.60435816     0.13200
C1028       C  0.42388303  0.65224351  0.60996938    -0.21100
C1029       C  0.43536789  0.67829926  0.62908676    -0.07700
C1030       C  0.46416098  0.68612392  0.64831283     0.13200
C1031       C  0.47608195  0.71257715  0.67050117    -0.24500
H1032       H  0.50358677  0.67416756  0.66194820     0.14500
H1033       H  0.40154430  0.64613789  0.59548468     0.14500
C1034       C  0.93258954  0.61464916  0.58073606    -0.24400
H1035       H  0.49721215  0.71376500  0.68492783     0.04700
H1036       H  0.45216916  0.70772343  0.68376838     0.08000
H1037       H  0.48816594  0.73675100  0.66007085     0.08000
H1038       H  0.92377028  0.59033440  0.58985238     0.07900
H1039       H  0.95553557  0.62212089  0.56546207     0.07900
H1040       H  0.90921180  0.61219169  0.56840575     0.04700
C1041       C  0.26395725  0.63547228  0.60319040    -0.21100
C1042       C  0.24401126  0.64230580  0.62280009    -0.07600
C1043       C  0.26313648  0.66868997  0.64213639     0.13200
C1044       C  0.30169916  0.68674187  0.64185551    -0.21100
C1045       C  0.32147010  0.67865825  0.62319976    -0.07700
C1046       C  0.30235617  0.65307080  0.60326061     0.13200
C1047       C  0.32214972  0.64449293  0.58159666    -0.24500
H1048       H  0.24936168  0.61550029  0.58820553     0.14500
H1049       H  0.31652225  0.70669477  0.65682761     0.14500
C1050       C  0.24329838  0.67847324  0.66262816    -0.24400
H1051       H  0.30284355  0.62555653  0.56635463     0.04700
H1052       H  0.33715704  0.63459690  0.59244853     0.08000
H1053       H  0.34167156  0.66652751  0.56913211     0.08000
H1054       H  0.22768312  0.65887665  0.67852880     0.07900
H1055       H  0.22428719  0.68324460  0.65070968     0.07900
H1056       H  0.26266160  0.70101834  0.67460244     0.04700
C1057       C  0.25953392  0.89079037  0.89653333    -0.21100
C1058       C  0.24258018  0.86723160  0.87502611    -0.07600
C1059       C  0.26422842  0.86409831  0.85401130     0.13200
C1060       C  0.30250347  0.88498668  0.85485146    -0.21100
C1061       C  0.31974759  0.90847112  0.87655287    -0.07700
C1062       C  0.29781428  0.91129092  0.89780575     0.13200
C1063       C  0.31406597  0.93657171  0.92123154    -0.24500
H1064       H  0.24256988  0.89328674  0.91234464     0.14500
H1065       H  0.31909606  0.88276987  0.83852523     0.14500
C1066       C  0.24701922  0.83951019  0.83018394    -0.24400
H1067       H  0.29251388  0.93667491  0.93444134     0.04700
H1068       H  0.33142803  0.96129302  0.91184955     0.08000
H1069       H  0.33063152  0.93129199  0.93576156     0.08000
H1070       H  0.22764138  0.84372498  0.81815663     0.07900
H1071       H  0.23203116  0.81442440  0.83911134     0.07900
H1072       H  0.26792042  0.84123789  0.81494757     0.04700
C1073       C  0.09098907  0.88464961  0.84844476    -0.21100
C1074       C  0.09197182  0.90129295  0.87352306    -0.07600
C1075       C  0.11392733  0.90262032  0.89674100     0.13200
C1076       C  0.13225433  0.88572881  0.89466511    -0.21100
C1077       C  0.12993778  0.86832989  0.87002967    -0.07700
C1078       C  0.11035671  0.86873396  0.84624432     0.13200
C1079       C  0.11131277  0.85378588  0.81818749    -0.24500
H1080       H  0.07522503  0.88424242  0.83028962     0.14500
H1081       H  0.14838790  0.88588575  0.91246886     0.14500
C1082       C  0.11953641  0.92240678  0.92341811    -0.24400
H1083       H  0.09576210  0.85759858  0.80140306     0.04700
H1084       H  0.09909031  0.82719768  0.82065494     0.08000
H1085       H  0.14016363  0.86513152  0.81079994     0.08000
H1086       H  0.09344455  0.91197483  0.93555878     0.07900
H1087       H  0.12996858  0.94822249  0.91769729     0.07900
H1088       H  0.13991309  0.92237718  0.93792156     0.04700
C1089       C  0.07142504  0.71103925  0.85486543    -0.21100
C1090       C  0.08097385  0.69475653  0.87428731    -0.07600
C1091       C  0.11212263  0.71306480  0.89186144     0.13200
C1092       C  0.13277975  0.74720098  0.88943119    -0.21100
C1093       C  0.12273206  0.76356553  0.87043567    -0.07700
C1094       C  0.09146801  0.74517680  0.85298501     0.13200
C1095       C  0.07929410  0.76105047  0.83188708    -0.24500
H1096       H  0.04773161  0.69689031  0.84130293     0.14500
H1097       H  0.15661294  0.76128632  0.90286598     0.14500
C1098       C  0.12456633  0.69696432  0.91256673    -0.24400
H1099       H  0.05614415  0.74273424  0.81857103     0.04700
H1100       H  0.10236107  0.77716574  0.81736521     0.08000
H1101       H  0.06958200  0.77528867  0.84343331     0.08000
H1102       H  0.12898343  0.67903773  0.90114365     0.07900
H1103       H  0.10373693  0.68446835  0.92965109     0.07900
H1104       H  0.15073303  0.71501525  0.92308465     0.04700
C1105       C  0.55423198  0.15626235  0.37645651     0.79400
N1106       N  0.54541275  0.13966681  0.40162764    -0.78900
C1107       C  0.52793660  0.10671617  0.40186032     0.81900
N1108       N  0.51930606  0.09047411  0.37666548    -0.78800
C1109       C  0.52739459  0.10626259  0.35132067     0.82000
N1110       N  0.54531284  0.13935335  0.35126080    -0.80500
C1111       C  0.57772519  0.42175149  0.37646784     0.79400
N1112       N  0.56948801  0.43101852  0.40158116    -0.78900
C1113       C  0.55235919  0.44793182  0.40127038     0.81900
N1114       N  0.54402078  0.45559041  0.37586550    -0.78800
C1115       C  0.55194201  0.44668130  0.35069220     0.82000
N1116       N  0.56895944  0.42961250  0.35094466    -0.80500
C1117       C  0.70173902  0.34638111  0.37587525     0.79400
N1118       N  0.68205033  0.31326377  0.37417859    -0.78900
C1119       C  0.64495073  0.29681316  0.37206126     0.81900
N1120       N  0.62739793  0.31339511  0.37239778    -0.78800
C1121       C  0.64672098  0.34640351  0.37443613     0.82000
N1122       N  0.68380650  0.36270569  0.37631925    -0.80500
C1123       C  0.85993784  0.42757085  0.37619457     0.79400
N1124       N  0.87976267  0.43924256  0.40077641    -0.78900
C1125       C  0.91664061  0.46002262  0.39933439     0.81900
N1126       N  0.93309320  0.46879120  0.37369382    -0.78800
C1127       C  0.91421688  0.45753929  0.34919994     0.82000
N1128       N  0.87726248  0.43659726  0.35022837    -0.80500
Zr1129     Zr  0.53095840  0.02200664  0.05384646     2.17500
O1130       O  0.99040659  0.99974038  0.09316907    -0.52100
O1131       O  0.58776603  0.05278312  0.07939125    -0.75300
O1132       O  0.53889171  0.48077716  0.08020362    -0.82100
O1133       O  0.51503217  0.09243534  0.04942671    -0.83800
O1134       O  0.53649357  0.44307977  0.04947537    -0.79500
O1135       O  0.52504656  0.06144809  0.08008211    -0.91100
O1136       O  0.63660560  0.08013884  0.04964562    -0.77100
O1137       O  0.57482488  0.01561986  0.02879094    -0.86600
O1138       O  0.56586495  0.07179346  0.02861874    -0.86200
O1139       O  0.99606983  0.47433602  0.02535701    -0.73000
O1140       O  0.48681222  0.02651906  0.02670343    -0.85100
Zr1141     Zr  0.53438710  0.02378283  0.44723152     2.26400
Zr1142     Zr  0.54106895  0.46646318  0.00155837     2.06300
Zr1143     Zr  0.52747095  0.07887422  0.50142373     2.10000
Zr1144     Zr  0.60924806  0.06518444  0.00258949     1.78800
O1145       O  0.47354494  0.08338912  0.49947300    -0.93900
O1146       O  0.65687558  0.05201594  0.00379080    -0.41700
O1147       O  0.57126272  0.07274474  0.47427303    -0.78400
O1148       O  0.57915083  0.01923339  0.47369556    -0.97100
O1149       O  0.50235757  0.47895392  0.47716407    -0.90400
O1150       O  0.49144320  0.03086678  0.47318312    -0.93200
C1151       C  0.62216679  0.07182287  0.07450707     1.00500
C1152       C  0.51838530  0.08383050  0.07486892     1.13500
C1153       C  0.53746641  0.45411218  0.07482524     1.04300
O1154       O  0.59586238  0.46330422  0.00418554    -0.95400
O1155       O  0.55058351  0.45417223  0.45246267    -0.91100
O1156       O  0.53829375  0.48363739  0.42183919    -0.84300
C1157       C  0.54654114  0.46228102  0.42712502     1.10900
O1158       O  0.91613313  0.46178362  0.03953166    -0.97300
Zr1159     Zr  0.95496460  0.48203142  0.49626919     1.88900
O1160       O  0.97563126  0.99095612  0.42066004    -0.74000
O1161       O  0.99909383  0.41211837  0.49294542    -0.53300
O1162       O  0.91983327  0.42251822  0.49565812    -0.97900
O1163       O  0.90272392  0.98854963  0.49292430    -0.55100
O1164       O  0.92668415  0.46573738  0.44949330    -0.74500
C1165       C  0.94037242  0.47358268  0.42435788     0.97800
O1166       O  0.57624562  0.04775996  0.40671688    -0.63300
O1167       O  0.56252920  0.13544158  0.00194798    -0.58100
O1168       O  0.52733726  0.06282210  0.42173510    -0.94800
O1169       O  0.52909012  0.10001713  0.45290273    -0.93200
O1170       O  0.64231402  0.12459789  0.00406622    -0.93600
O1171       O  0.64998822  0.08994309  0.45994485    -0.92400
C1172       C  0.52758509  0.08889639  0.42744654     1.16700
H1173       H  0.57837080  0.09025362  0.04135926     0.32600
H1174       H  0.59579127  0.01734945  0.46100277     0.43500
H1175       H  0.97292917  0.03297509  0.45902242     0.37000
H1176       H  0.98213509  0.45584832  0.03786023     0.33500
H1177       H  0.67920973  0.07244637  0.01006213     0.25300
H1178       H  0.01378972  0.40262748  0.49859497     0.31200
H1179       H  0.89631094  0.41631846  0.48643167     0.37100
H1180       H  0.66741156  0.13139421  0.01021567     0.31600
H1181       H  0.54696102  0.14329775  0.00966913     0.30500
H1182       H  0.48344485  0.10716956  0.49904016     0.32100
H1183       H  0.88150283  0.96667294  0.48805976     0.31100
H1184       H  0.64045972  0.10264681  0.45109191     0.35100
H1185       H  0.59008808  0.07162025  0.41018711     0.27800
H1186       H  0.97841324  0.97574507  0.09143162     0.32100
H1187       H  0.89078737  0.44663605  0.03280213     0.34900
H1188       H  0.58019410  0.13969459  0.01736563     0.27500
H1189       H  0.59478511  0.04164335  0.40931357     0.40400
H1190       H  0.60855728  0.47199365  0.98569172     0.30500
H1191       H  0.65022304  0.03698472  0.02017855     0.38100
H1192       H  0.90775224  0.00154739  0.47531264     0.29900
H1193       H  0.97820177  0.40489148  0.00710729     0.30000
H1194       H  0.97147136  0.50289954  0.08903472     0.30200
Zr1195     Zr  0.53214266  0.02236134  0.30496268     2.17500
O1196       O  0.57574320  0.04740320  0.34411592    -0.52100
O1197       O  0.97372633  0.98935802  0.32901275    -0.75300
O1198       O  0.52481886  0.06122300  0.33120565    -0.82100
O1199       O  0.54775115  0.45053622  0.29922991    -0.83800
O1200       O  0.52685662  0.09834980  0.30026137    -0.79500
O1201       O  0.54019076  0.48331071  0.32986322    -0.91100
O1202       O  0.92101843  0.46243518  0.29824357    -0.77100
O1203       O  0.49383856  0.02839924  0.27640775    -0.86600
O1204       O  0.49573564  0.47186342  0.28025288    -0.86200
O1205       O  0.56938318  0.07109931  0.27811438    -0.73000
O1206       O  0.57551638  0.01667124  0.27751792    -0.85100
Zr1207     Zr  0.53190879  0.02195317  0.19764588     2.26400
Zr1208     Zr  0.52504344  0.07671892  0.25174911     2.06300
Zr1209     Zr  0.53846258  0.46637175  0.25111974     2.10000
Zr1210     Zr  0.94990077  0.47693410  0.25126233     1.78800
O1211       O  0.59103264  0.45996018  0.24696082    -0.93900
O1212       O  0.90671898  0.99519606  0.25582235    -0.41700
O1213       O  0.99235989  0.47166553  0.22147774    -0.78400
O1214       O  0.48807041  0.02736206  0.22502303    -0.97100
O1215       O  0.56794499  0.07181875  0.22256093    -0.90400
O1216       O  0.57492339  0.01463450  0.22259567    -0.93200
C1217       C  0.93595929  0.46967320  0.32290364     1.00500
C1218       C  0.54620100  0.46048844  0.32457501     1.13500
C1219       C  0.52568185  0.08758074  0.32567606     1.04300
O1220       O  0.47523430  0.08679404  0.25663607    -0.95400
O1221       O  0.51664083  0.09285788  0.20329617    -0.91100
O1222       O  0.52654721  0.06194150  0.17209306    -0.84300
C1223       C  0.51970060  0.08421018  0.17773442     1.10900
O1224       O  0.65108790  0.08578552  0.28961197    -0.97300
Zr1225     Zr  0.61072818  0.06433399  0.24834009     1.88900
O1226       O  0.58858971  0.05308441  0.17160001    -0.74000
O1227       O  0.57007930  0.13507826  0.24865175    -0.53300
O1228       O  0.64521509  0.12383784  0.24753412    -0.97900
O1229       O  0.65710762  0.04952250  0.24689618    -0.55100
O1230       O  0.63788157  0.07933017  0.20083587    -0.74500
C1231       C  0.62311667  0.07170574  0.17608697     0.97800
O1232       O  0.98976886  0.99998569  0.15543447    -0.63300
O1233       O  0.99205467  0.40736860  0.25229325    -0.58100
O1234       O  0.53780125  0.48222122  0.17129053    -0.94800
O1235       O  0.53381480  0.44423089  0.20230480    -0.93200
O1236       O  0.91913301  0.41772687  0.25504292    -0.93600
O1237       O  0.90855717  0.45109139  0.21107088    -0.92400
C1238       C  0.53557526  0.45524068  0.17686264     1.16700
H1239       H  0.98056244  0.45204567  0.29036406     0.32600
H1240       H  0.97161699  0.02948563  0.21078384     0.43500
H1241       H  0.59069458  0.51076919  0.21007043     0.37000
H1242       H  0.58328998  0.08957233  0.29066385     0.33500
H1243       H  0.88392737  0.97511138  0.26207228     0.25300
H1244       H  0.55567756  0.14552034  0.25188710     0.31200
H1245       H  0.63712560  0.12959085  0.22998468     0.37100
H1246       H  0.89347155  0.41025100  0.26028061     0.31600
H1247       H  0.00697922  0.39791232  0.25728040     0.30500
H1248       H  0.58176252  0.43913591  0.23653597     0.32100
H1249       H  0.65072216  0.03479278  0.23024560     0.31100
H1250       H  0.92769464  0.96051336  0.19537382     0.35100
H1251       H  0.97322021  0.47152040  0.15874945     0.27800
H1252       H  0.58899226  0.07123147  0.34065121     0.32100
H1253       H  0.67595500  0.10070326  0.28172955     0.34900
H1254       H  0.97776927  0.40481534  0.26981130     0.27500
H1255       H  0.97010700  0.00427928  0.16005935     0.40400
H1256       H  0.98499746  0.10762859  0.25685736     0.30500
H1257       H  0.91423394  0.01008020  0.27245998     0.38100
H1258       H  0.65152871  0.03509178  0.26359664     0.29900
H1259       H  0.58521589  0.14030422  0.26602340     0.30000
H1260       H  0.59450599  0.04168748  0.34055928     0.30200
C1261       C  0.70122415  0.11445298  0.12452422     0.79400
N1262       N  0.68277353  0.10422038  0.14998437    -0.78900
C1263       C  0.64563431  0.08420007  0.15015564     0.81900
N1264       N  0.62756250  0.07466513  0.12524815    -0.78800
C1265       C  0.64508639  0.08417379  0.10001602     0.82000
N1266       N  0.68220867  0.10407236  0.09944413    -0.80500
C1267       C  0.48962929  0.12542710  0.12702865     0.79400
N1268       N  0.49775093  0.11649978  0.10159973    -0.78900
C1269       C  0.51391202  0.09874215  0.10118077     0.81900
N1270       N  0.52187244  0.09017429  0.12635547    -0.78800
C1271       C  0.51436346  0.09883559  0.15186442     0.82000
N1272       N  0.49791978  0.11643291  0.15220780    -0.80500
C1273       C  0.86032966  0.19390099  0.12219745     0.79400
N1274       N  0.87905116  0.22716418  0.12205030    -0.78900
C1275       C  0.91643530  0.24471410  0.12205851     0.81900
N1276       N  0.93488996  0.22890704  0.12256520    -0.78800
C1277       C  0.91648838  0.19586711  0.12360870     0.82000
N1278       N  0.87928769  0.17853345  0.12318334    -0.80500
C1279       C  0.00496114  0.38614873  0.12154872     0.79400
N1280       N  0.01441689  0.40350953  0.09667032    -0.78900
C1281       C  0.53498095  0.43574394  0.10072586     0.81900
N1282       N  0.54244235  0.45198371  0.12588665    -0.78800
C1283       C  0.53365469  0.43632676  0.15128668     0.82000
N1284       N  0.01263805  0.40223884  0.14718740    -0.80500
C1285       C  0.96496481  0.29682828  0.10064827    -0.21100
C1286       C  0.93750112  0.28080747  0.12145103    -0.07600
C1287       C  0.93255918  0.29939424  0.14230972     0.13800
C1288       C  0.95523201  0.33358780  0.14187706    -0.21100
C1289       C  0.98242160  0.34984103  0.12080644    -0.07700
C1290       C  0.98708059  0.33108281  0.09968694     0.13200
C1291       C  0.52474487  0.34493786  0.08792780    -0.24500
H1292       H  0.96889755  0.28236562  0.08488156     0.14500
H1293       H  0.95135254  0.34774254  0.15798951     0.14500
C1294       C  0.90427801  0.28323078  0.16564236    -0.24400
H1295       H  0.52680087  0.32565289  0.07655597     0.04700
H1296       H  0.55063664  0.36032402  0.09986898     0.08000
H1297       H  0.52173534  0.35988244  0.07152032     0.08000
H1298       H  0.90925728  0.26614418  0.17771902     0.07900
H1299       H  0.87639122  0.26956998  0.15627833     0.07900
H1300       H  0.90523029  0.30135681  0.18093709     0.04700
C1301       C  0.98466861  0.17101608  0.14248437    -0.21100
C1302       C  0.97282335  0.14388776  0.12460472    -0.07600
C1303       C  0.44445701  0.13897820  0.10618717     0.13200
C1304       C  0.92410637  0.15090666  0.10728787    -0.21100
C1305       C  0.93658232  0.17865911  0.12450302    -0.07700
C1306       C  0.96699316  0.18863365  0.14264736     0.13200
C1307       C  0.98009948  0.21694142  0.16301662    -0.24500
H1308       H  0.00808725  0.17860930  0.15621644     0.14500
H1309       H  0.90055172  0.14308375  0.09367841     0.14500
C1310       C  0.43451303  0.11547671  0.08158501    -0.24400
H1311       H  0.00245692  0.21972799  0.17693329     0.04700
H1312       H  0.95707642  0.21297744  0.17697734     0.08000
H1313       H  0.99099512  0.24006101  0.15100205     0.08000
H1314       H  0.42521469  0.09067516  0.08975387     0.07900
H1315       H  0.45842051  0.12394627  0.06711572     0.07900
H1316       H  0.41191160  0.11361705  0.06857788     0.04700
C1317       C  0.76152289  0.12816166  0.10469990    -0.21100
C1318       C  0.74186148  0.13584349  0.12386868    -0.07600
C1319       C  0.76130638  0.16385560  0.14143061     0.13200
C1320       C  0.79986586  0.18294787  0.13977637    -0.21100
C1321       C  0.81958412  0.17430152  0.12158276    -0.07700
C1322       C  0.80003039  0.14670459  0.10354571     0.13200
C1323       C  0.81941468  0.13696197  0.08253067    -0.24500
H1324       H  0.74664373  0.10697688  0.09097018     0.14500
H1325       H  0.81477835  0.20426420  0.15335126     0.14500
C1326       C  0.74160538  0.17421068  0.16146804    -0.24400
H1327       H  0.79976408  0.11661528  0.06851164     0.04700
H1328       H  0.83538645  0.12847241  0.09405246     0.08000
H1329       H  0.83797696  0.15803955  0.06870656     0.08000
H1330       H  0.72733653  0.15563268  0.17841653     0.07900
H1331       H  0.72136184  0.17726429  0.14944871     0.07900
H1332       H  0.76088439  0.19778321  0.17212590     0.04700
C1333       C  0.75970520  0.39440074  0.39291752    -0.21100
C1334       C  0.74237477  0.36509407  0.37726821    -0.07600
C1335       C  0.76420146  0.35597424  0.36183787     0.13200
C1336       C  0.80257470  0.37668935  0.36219067    -0.21100
C1337       C  0.81964773  0.40603029  0.37766133    -0.07700
C1338       C  0.79796244  0.41497245  0.39329732     0.13200
C1339       C  0.81482212  0.44695482  0.40923546    -0.24500
H1340       H  0.74314020  0.40153200  0.40468226     0.14500
H1341       H  0.81942717  0.37007616  0.35016707     0.14500
C1342       C  0.74750940  0.32536572  0.34393187    -0.24400
H1343       H  0.79361495  0.45089888  0.41867914     0.04700
H1344       H  0.83185718  0.46750295  0.39443560     0.08000
H1345       H  0.83206262  0.44730823  0.42694977     0.08000
H1346       H  0.72853006  0.32555124  0.32802504     0.07900
H1347       H  0.73246170  0.30350335  0.35776116     0.07900
H1348       H  0.76872381  0.32327332  0.33210276     0.04700
C1349       C  0.58213142  0.37595733  0.35849007    -0.21100
C1350       C  0.59577299  0.40289847  0.37676833    -0.07600
C1351       C  0.62614389  0.41122540  0.39441708     0.13200
C1352       C  0.64182134  0.39199757  0.39335951    -0.21100
C1353       C  0.62786734  0.36471378  0.37525394    -0.07700
C1354       C  0.59754117  0.35659279  0.35759931     0.13200
C1355       C  0.58182189  0.32831663  0.33706618    -0.24500
H1356       H  0.55891507  0.36981992  0.34497321     0.14500
H1357       H  0.66516258  0.39830861  0.40678437     0.14500
C1358       C  0.64317353  0.44098397  0.41344969    -0.24400
H1359       H  0.55999057  0.32722581  0.32357598     0.04700
H1360       H  0.56924745  0.30506578  0.34910886     0.08000
H1361       H  0.60379559  0.33081602  0.32263653     0.08000
H1362       H  0.62355998  0.43814973  0.43042276     0.07900
H1363       H  0.65109688  0.46306792  0.40058368     0.07900
H1364       H  0.66821742  0.44485419  0.42414831     0.04700
C1365       C  0.57827402  0.20895672  0.35124529    -0.21100
C1366       C  0.57781002  0.19249851  0.37612948    -0.07600
C1367       C  0.60175352  0.21091690  0.39894420     0.13200
C1368       C  0.62412523  0.24491603  0.39641136    -0.21100
C1369       C  0.62342279  0.26102276  0.37198008    -0.07700
C1370       C  0.60098142  0.24293789  0.34883601     0.13200
C1371       C  0.60182386  0.25926530  0.32128064    -0.24500
H1372       H  0.56078900  0.19520450  0.33347333     0.14500
H1373       H  0.64190221  0.25922529  0.41388764     0.14500
C1374       C  0.60499918  0.19553600  0.42586762    -0.24400
H1375       H  0.58393885  0.24126692  0.30485009     0.04700
H1376       H  0.63027330  0.27315354  0.31274425     0.08000
H1377       H  0.59206598  0.27613109  0.32495929     0.08000
H1378       H  0.61246094  0.17725404  0.42048814     0.07900
H1379       H  0.57880723  0.18391173  0.43800763     0.07900
H1380       H  0.62660437  0.21385239  0.44026803     0.04700
C1381       C  0.55792251  0.15733757  0.87490951     0.79400
N1382       N  0.54970792  0.14069865  0.90016590    -0.78900
C1383       C  0.53203740  0.10759785  0.90028948     0.81900
N1384       N  0.52361336  0.09151208  0.87505364    -0.78800
C1385       C  0.53180030  0.10731435  0.84976421     0.82000
N1386       N  0.54926395  0.14037957  0.84971310    -0.80500
C1387       C  0.57287203  0.41702624  0.87591937     0.79400
N1388       N  0.56386245  0.42538666  0.90120850    -0.78900
C1389       C  0.54752398  0.44299323  0.90137099     0.81900
N1390       N  0.54040786  0.45211408  0.87619234    -0.78800
C1391       C  0.54891842  0.44411706  0.85084597     0.82000
N1392       N  0.56540593  0.42657313  0.85067554    -0.80500
C1393       C  0.70495038  0.34857285  0.86995065     0.79400
N1394       N  0.68536294  0.31531383  0.86936853    -0.78900
C1395       C  0.64804004  0.29860156  0.86963768     0.81900
N1396       N  0.63043077  0.31513809  0.87033381    -0.78800
C1397       C  0.64975297  0.34820311  0.87061286     0.82000
N1398       N  0.68692601  0.36483731  0.87092410    -0.80500
C1399       C  0.86364682  0.42833441  0.87383651     0.79400
N1400       N  0.88247749  0.43787323  0.89900910    -0.78900
C1401       C  0.91957589  0.45754649  0.89873743     0.81900
N1402       N  0.93734970  0.46741008  0.87359242    -0.78800
C1403       C  0.91947833  0.45853449  0.84855014     0.82000
N1404       N  0.88232420  0.43872884  0.84847792    -0.80500
Zr1405     Zr  0.53591402  0.02426159  0.55456915     2.17500
O1406       O  0.99259957  0.00222363  0.59374325    -0.52100
O1407       O  0.59240068  0.05393981  0.58015985    -0.75300
O1408       O  0.54144496  0.48395977  0.58045454    -0.82100
O1409       O  0.52016973  0.09554521  0.54992330    -0.83800
O1410       O  0.54009837  0.44715718  0.54926961    -0.79500
O1411       O  0.53060592  0.06458789  0.58021334    -0.91100
O1412       O  0.64137765  0.08064967  0.55049829    -0.77100
O1413       O  0.57437773  0.01830684  0.52545169    -0.86600
O1414       O  0.57099840  0.07428198  0.52961062    -0.86200
O1415       O  0.99680497  0.47570650  0.52520948    -0.73000
O1416       O  0.49174401  0.02944362  0.52836871    -0.85100
Zr1417     Zr  0.53090522  0.02112757  0.94647560     2.26400
Zr1418     Zr  0.54241885  0.46974791  0.50133571     2.06300
Zr1419     Zr  0.52250253  0.07620235  0.00016381     2.10000
Zr1420     Zr  0.61345898  0.06675924  0.50318069     1.78800
O1421       O  0.46845779  0.08003928  0.99448309    -0.93900
O1422       O  0.66182983  0.05453536  0.50088626    -0.41700
O1423       O  0.56646390  0.06989328  0.97359523    -0.78400
O1424       O  0.57516667  0.01708651  0.97378330    -0.97100
O1425       O  0.49768848  0.47122778  0.97363367    -0.90400
O1426       O  0.48729381  0.02804250  0.97168570    -0.93200
C1427       C  0.62680452  0.07258919  0.57541111     1.00500
C1428       C  0.52369427  0.08686308  0.57515056     1.13500
C1429       C  0.54061121  0.45762319  0.57477630     1.04300
O1430       O  0.59349669  0.46108544  0.50407302    -0.95400
O1431       O  0.54666036  0.44924925  0.95270670    -0.91100
O1432       O  0.53622235  0.48019371  0.92233233    -0.84300
C1433       C  0.54285103  0.45775876  0.92746147     1.10900
O1434       O  0.91813870  0.46441676  0.53983245    -0.97300
Zr1435     Zr  0.95425244  0.48080942  0.99663507     1.88900
O1436       O  0.97520838  0.99125266  0.92192875    -0.74000
O1437       O  0.99774112  0.41042244  0.99283072    -0.53300
O1438       O  0.91978351  0.42131001  0.99747368    -0.97900
O1439       O  0.90724610  0.99420733  0.00032362    -0.55100
O1440       O  0.92729396  0.46357157  0.94935591    -0.74500
C1441       C  0.94201396  0.47086793  0.92447337     0.97800
O1442       O  0.57750583  0.04503629  0.90915956    -0.63300
O1443       O  0.57011229  0.13777013  0.50357732    -0.58100
O1444       O  0.52711078  0.06177077  0.92043319    -0.94800
O1445       O  0.52962315  0.09938749  0.95152651    -0.93200
O1446       O  0.64980869  0.12609252  0.50759130    -0.93600
O1447       O  0.64926039  0.08961376  0.96125863    -0.92400
C1448       C  0.52909135  0.08868783  0.92604000     1.16700
H1449       H  0.58385634  0.09267961  0.54235992     0.32600
H1450       H  0.59202126  0.01525317  0.96131904     0.43500
H1451       H  0.97434946  0.03345793  0.95957081     0.37000
H1452       H  0.98318199  0.45731868  0.53786103     0.33500
H1453       H  0.68454362  0.07542128  0.50570746     0.25300
H1454       H  0.01110299  0.40035856  0.00029276     0.31200
H1455       H  0.89514827  0.41465707  0.99024247     0.37100
H1456       H  0.67552661  0.13160526  0.50870235     0.31600
H1457       H  0.55438446  0.14695107  0.50652001     0.30500
H1458       H  0.47594992  0.10199730  0.00184678     0.32100
H1459       H  0.88588287  0.97605837  0.99034499     0.31100
H1460       H  0.64783901  0.07109592  0.95075095     0.35100
H1461       H  0.59235724  0.06861382  0.91380258     0.27800
H1462       H  0.00856579  0.00461182  0.60990282     0.32100
H1463       H  0.89285713  0.44821087  0.53360572     0.34900
H1464       H  0.58319697  0.14166236  0.52188811     0.27500
H1465       H  0.59428171  0.03712730  0.91272587     0.40400
H1466       H  0.61351716  0.47920632  0.49297071     0.30500
H1467       H  0.65732585  0.04029579  0.51752904     0.38100
H1468       H  0.91606319  0.01316785  0.98744875     0.29900
H1469       H  0.98116825  0.40621285  0.50868305     0.30000
H1470       H  0.97724978  0.48004215  0.58848382     0.30200
Zr1471     Zr  0.53002577  0.01958604  0.80386957     2.17500
O1472       O  0.57165478  0.03843189  0.84420657    -0.52100
O1473       O  0.97728482  0.99386118  0.82989845    -0.75300
O1474       O  0.52805152  0.06181979  0.82948618    -0.82100
O1475       O  0.54646566  0.44992779  0.79959813    -0.83800
O1476       O  0.52941273  0.09868955  0.79871940    -0.79500
O1477       O  0.53851892  0.48210471  0.83074266    -0.91100
O1478       O  0.92752867  0.46571652  0.79797939    -0.77100
O1479       O  0.49293286  0.02738576  0.77526505    -0.86600
O1480       O  0.49496448  0.47140900  0.78005376    -0.86200
O1481       O  0.56946946  0.06870225  0.77805100    -0.73000
O1482       O  0.57309257  0.01266552  0.77715388    -0.85100
Zr1483     Zr  0.53283354  0.02154114  0.69700467     2.26400
Zr1484     Zr  0.52677991  0.07578624  0.75082143     2.06300
Zr1485     Zr  0.53792604  0.46597735  0.75130993     2.10000
Zr1486     Zr  0.95547476  0.48246978  0.75086006     1.78800
O1487       O  0.59077447  0.46004312  0.74696223    -0.93900
O1488       O  0.90936626  0.99797654  0.75328380    -0.41700
O1489       O  0.99691557  0.47547381  0.72138611    -0.78400
O1490       O  0.48856896  0.02708428  0.72356022    -0.97100
O1491       O  0.56565350  0.06502560  0.72605982    -0.90400
O1492       O  0.57390184  0.01147535  0.72212499    -0.93200
C1493       C  0.94204884  0.47250232  0.82279610     1.00500
C1494       C  0.54436571  0.45922509  0.82508672     1.13500
C1495       C  0.52921872  0.08834284  0.82407404     1.04300
O1496       O  0.47737954  0.08666051  0.75424887    -0.95400
O1497       O  0.51929045  0.09372497  0.70310303    -0.91100
O1498       O  0.52806438  0.06230497  0.67178957    -0.84300
C1499       C  0.52186420  0.08498950  0.67752993     1.10900
O1500       O  0.64643856  0.07693734  0.79220323    -0.97300
Zr1501     Zr  0.60995055  0.06043442  0.74870465     1.88900
O1502       O  0.59040793  0.05278470  0.67203459    -0.74000
O1503       O  0.57439676  0.13355087  0.74784794    -0.53300
O1504       O  0.65021393  0.11969106  0.74996420    -0.97900
O1505       O  0.65344301  0.04220376  0.74731376    -0.55100
O1506       O  0.63900198  0.07713528  0.70201501    -0.74500
C1507       C  0.62487977  0.07057402  0.67705738     0.97800
O1508       O  0.98548469  0.99704556  0.66009054    -0.63300
O1509       O  0.99604502  0.40988665  0.74941610    -0.58100
O1510       O  0.53644008  0.48153224  0.67170872    -0.94800
O1511       O  0.53434747  0.44406634  0.70234410    -0.93200
O1512       O  0.91630945  0.42318312  0.75294920    -0.93600
O1513       O  0.91627346  0.45928432  0.70911136    -0.92400
C1514       C  0.53550886  0.45506174  0.67695414     1.16700
H1515       H  0.98445389  0.45531843  0.78894504     0.32600
H1516       H  0.97216057  0.03118512  0.71114438     0.43500
H1517       H  0.58981965  0.51097120  0.71046430     0.37000
H1518       H  0.58368069  0.08688660  0.79080862     0.33500
H1519       H  0.88591976  0.97774621  0.75816531     0.25300
H1520       H  0.56272901  0.14511160  0.75563794     0.31200
H1521       H  0.64271937  0.12759701  0.73347866     0.37100
H1522       H  0.92821334  0.41508108  0.74006342     0.31600
H1523       H  0.01019871  0.40039659  0.75642637     0.30500
H1524       H  0.58214630  0.43792421  0.75441279     0.32100
H1525       H  0.65339329  0.03532440  0.72736497     0.31100
H1526       H  0.91776197  0.97445308  0.70023637     0.35100
H1527       H  0.97285731  0.47475881  0.66325491     0.27800
H1528       H  0.55681649  0.03916612  0.86007485     0.32100
H1529       H  0.67223987  0.09108463  0.78585985     0.34900
H1530       H  0.97935290  0.40692867  0.76539059     0.27500
H1531       H  0.96850700  0.00487237  0.66323451     0.40400
H1532       H  0.95389224  0.06656466  0.74052051     0.30500
H1533       H  0.91531166  0.01197551  0.77041913     0.38100
H1534       H  0.64142380  0.02160156  0.75834058     0.29900
H1535       H  0.59258485  0.13677064  0.76247049     0.30000
H1536       H  0.59021783  0.06157846  0.84005471     0.30200
C1537       C  0.70414861  0.11590914  0.62701407     0.79400
N1538       N  0.68503874  0.10449751  0.65208008    -0.78900
C1539       C  0.64812059  0.08347919  0.65153146     0.81900
N1540       N  0.63092203  0.07397337  0.62626921    -0.78800
C1541       C  0.64910115  0.08457518  0.60134153     0.82000
N1542       N  0.68596832  0.10567955  0.60154600    -0.80500
C1543       C  0.49278465  0.12693338  0.62659053     0.79400
N1544       N  0.50193216  0.11868853  0.60132345    -0.78900
C1545       C  0.51857637  0.10135626  0.60124370     0.81900
N1546       N  0.52580474  0.09239151  0.62646078    -0.78800
C1547       C  0.51715542  0.10026154  0.65182064     0.82000
N1548       N  0.50031952  0.11760559  0.65195849    -0.80500
C1549       C  0.86223182  0.19836099  0.62560369     0.79400
N1550       N  0.88125518  0.23158391  0.62632770    -0.78900
C1551       C  0.91859150  0.24869668  0.62717479     0.81900
N1552       N  0.93652201  0.23242060  0.62758481    -0.78800
C1553       C  0.91762406  0.19939428  0.62744727     0.82000
N1554       N  0.88056225  0.18248348  0.62613394    -0.80500
C1555       C  0.00914866  0.38932903  0.62180224     0.79400
N1556       N  0.01784550  0.40595933  0.59652811    -0.78900
C1557       C  0.53782763  0.43857566  0.60032880     0.81900
N1558       N  0.54433021  0.45379557  0.62595736    -0.78800
C1559       C  0.53479662  0.43711464  0.65090880     0.82000
N1560       N  0.01734742  0.40592137  0.64708914    -0.80500
C1561       C  0.97069717  0.29935863  0.60699214    -0.21100
C1562       C  0.94029458  0.28470600  0.62553585    -0.07600
C1563       C  0.93268992  0.30461635  0.64274515     0.13800
C1564       C  0.95565526  0.33867705  0.64084617    -0.21100
C1565       C  0.98589235  0.35331968  0.62213661    -0.07700
C1566       C  0.99341804  0.33340613  0.60486538     0.13200
C1567       C  0.51548307  0.34743542  0.57633103    -0.24500
H1568       H  0.97663347  0.28399843  0.59396388     0.14500
H1569       H  0.94992502  0.35404008  0.65406410     0.14500
C1570       C  0.90152732  0.29022772  0.66398750    -0.24400
H1571       H  0.51437874  0.32841964  0.56208937     0.04700
H1572       H  0.54404070  0.36286573  0.58418088     0.08000
H1573       H  0.50816404  0.36227297  0.56317869     0.08000
H1574       H  0.90464855  0.27411787  0.67904549     0.07900
H1575       H  0.87492870  0.27593970  0.65273687     0.07900
H1576       H  0.90085895  0.30946999  0.67666594     0.04700
C1577       C  0.98135629  0.16986812  0.64572369    -0.21100
C1578       C  0.97200938  0.14603578  0.62454774    -0.07600
C1579       C  0.44329958  0.13566684  0.60777698     0.13200
C1580       C  0.92723224  0.15772816  0.60614801    -0.21100
C1581       C  0.93708637  0.18182492  0.62699279    -0.07700
C1582       C  0.96446103  0.18808252  0.64705541     0.13200
C1583       C  0.97508990  0.21309741  0.67042066    -0.24500
H1584       H  0.00223956  0.17445559  0.66119972     0.14500
H1585       H  0.90611925  0.15311925  0.59088293     0.14500
C1586       C  0.42851349  0.10660027  0.58803716    -0.24400
H1587       H  0.99555261  0.21349627  0.68511070     0.04700
H1588       H  0.95048219  0.20735923  0.68317282     0.08000
H1589       H  0.98747643  0.23785196  0.66107117     0.08000
H1590       H  0.42123775  0.08438110  0.60045569     0.07900
H1591       H  0.44915789  0.11090663  0.57145525     0.07900
H1592       H  0.40346058  0.10192147  0.57678106     0.04700
C1593       C  0.76464863  0.13562894  0.60450136    -0.21100
C1594       C  0.74462985  0.13840155  0.62700447    -0.07600
C1595       C  0.76366026  0.16275434  0.64816739     0.13200
C1596       C  0.80206264  0.18294997  0.64648479    -0.21100
C1597       C  0.82186196  0.17914414  0.62455503    -0.07700
C1598       C  0.80293942  0.15548854  0.60309078     0.13200
C1599       C  0.82289755  0.15143507  0.57834324    -0.24500
H1600       H  0.75030510  0.11729865  0.58811807     0.14500
H1601       H  0.81686853  0.20122000  0.66283360     0.14500
C1602       C  0.74396853  0.16831753  0.67217742    -0.24400
H1603       H  0.80358372  0.13314464  0.56268422     0.04700
H1604       H  0.84087667  0.14292530  0.58603718     0.08000
H1605       H  0.83969999  0.17508613  0.56706757     0.08000
H1606       H  0.73073219  0.14682740  0.68654693     0.07900
H1607       H  0.72300400  0.17277853  0.66336613     0.07900
H1608       H  0.76309695  0.18983844  0.68536112     0.04700
C1609       C  0.76260695  0.39285169  0.89121426    -0.21100
C1610       C  0.74556706  0.36740028  0.87122541    -0.07600
C1611       C  0.76755131  0.36188767  0.85224554     0.13200
C1612       C  0.80595688  0.38218092  0.85362100    -0.21100
C1613       C  0.82301764  0.40739369  0.87389192    -0.07700
C1614       C  0.80093561  0.41271663  0.89301919     0.13200
C1615       C  0.81730247  0.44002309  0.91466938    -0.24500
H1616       H  0.74570097  0.39716608  0.90563763     0.14500
H1617       H  0.82282494  0.37816771  0.83889930     0.14500
C1618       C  0.75078289  0.33533494  0.83001367    -0.24400
H1619       H  0.79584818  0.44195999  0.92628177     0.04700
H1620       H  0.83562663  0.46369738  0.90382761     0.08000
H1621       H  0.83298417  0.43556325  0.93081478     0.08000
H1622       H  0.73158224  0.33836698  0.81650944     0.07900
H1623       H  0.73589786  0.31117386  0.84063662     0.07900
H1624       H  0.77193753  0.33582082  0.81584502     0.04700
C1625       C  0.58827738  0.37984549  0.85164646    -0.21100
C1626       C  0.59265374  0.39931390  0.87557232    -0.07600
C1627       C  0.61691534  0.40239302  0.89764020     0.13200
C1628       C  0.63557304  0.38573554  0.89511743    -0.21100
C1629       C  0.63036446  0.36587075  0.87152691    -0.07700
C1630       C  0.60668499  0.36298675  0.84942928     0.13200
C1631       C  0.60155324  0.34284471  0.82315353    -0.24500
H1632       H  0.57012163  0.37757939  0.83458721     0.14500
H1633       H  0.65404424  0.38784187  0.91186446     0.14500
C1634       C  0.62440120  0.42371271  0.92355937    -0.24400
H1635       H  0.58330418  0.34443007  0.80739827     0.04700
H1636       H  0.58902106  0.31679131  0.82905431     0.08000
H1637       H  0.62851196  0.35170593  0.81270878     0.08000
H1638       H  0.59922905  0.41386767  0.93681443     0.07900
H1639       H  0.63407333  0.44909872  0.91686309     0.07900
H1640       H  0.64593119  0.42464631  0.93732710     0.04700
C1641       C  0.60168055  0.20912037  0.84969886    -0.21100
C1642       C  0.58067006  0.19379935  0.87439566    -0.07600
C1643       C  0.58254357  0.21370763  0.89763810     0.13200
C1644       C  0.60506912  0.24783774  0.89537682    -0.21100
C1645       C  0.62626251  0.26267762  0.87092830    -0.07700
C1646       C  0.62438589  0.24320687  0.84773118     0.13200
C1647       C  0.64546633  0.25838960  0.82058912    -0.24500
H1648       H  0.60070743  0.19440728  0.83176144     0.14500
H1649       H  0.60635322  0.26317951  0.91291819     0.14500
C1650       C  0.56059390  0.19968767  0.92470545    -0.24400
H1651       H  0.64003588  0.23966984  0.80416338     0.04700
H1652       H  0.67527269  0.27233606  0.82503854     0.08000
H1653       H  0.63749518  0.27510943  0.81168032     0.08000
H1654       H  0.57026434  0.18558767  0.93631326     0.07900
H1655       H  0.53101160  0.18377166  0.91958921     0.07900
H1656       H  0.56364952  0.21910866  0.93943962     0.04700
C1657       C  0.55732896  0.65725848  0.37703132     0.79400
N1658       N  0.54808204  0.64051011  0.40220690    -0.78900
C1659       C  0.53012919  0.60743709  0.40224001     0.81900
N1660       N  0.52173775  0.59141798  0.37690696    -0.78800
C1661       C  0.53037022  0.60743257  0.35163420     0.82000
N1662       N  0.54858999  0.64049925  0.35177403    -0.80500
C1663       C  0.57659458  0.92012685  0.37531769     0.79400
N1664       N  0.56852646  0.92916340  0.40071009    -0.78900
C1665       C  0.55206231  0.94670694  0.40089133     0.81900
N1666       N  0.54397582  0.95501485  0.37570692    -0.78800
C1667       C  0.55162242  0.94634457  0.35033568     0.82000
N1668       N  0.56814760  0.92885980  0.35010021    -0.80500
C1669       C  0.70440828  0.84714474  0.37264515     0.79400
N1670       N  0.68408473  0.81398742  0.37224427    -0.78900
C1671       C  0.64698245  0.79797279  0.37034751     0.81900
N1672       N  0.63007879  0.81513375  0.36934839    -0.78800
C1673       C  0.65008423  0.84823884  0.37014599     0.82000
N1674       N  0.68716031  0.86410026  0.37207456    -0.80500
C1675       C  0.86257841  0.92526474  0.37656080     0.79400
N1676       N  0.88177684  0.93615298  0.40146929    -0.78900
C1677       C  0.91867251  0.95684806  0.40060319     0.81900
N1678       N  0.93577255  0.96642113  0.37523341    -0.78800
C1679       C  0.91745094  0.95612203  0.35046022     0.82000
N1680       N  0.88050111  0.93522830  0.35090007    -0.80500
Zr1681     Zr  0.53337948  0.52128134  0.05553670     2.17500
O1682       O  0.99113751  0.49836052  0.09250710    -0.52100
O1683       O  0.59040224  0.55250135  0.08040851    -0.75300
O1684       O  0.53628151  0.98196045  0.07980067    -0.82100
O1685       O  0.51570970  0.59098026  0.05081226    -0.83800
O1686       O  0.53481903  0.94476582  0.04887631    -0.79500
O1687       O  0.52478251  0.55954425  0.08161799    -0.91100
O1688       O  0.63932022  0.57902879  0.05065849    -0.77100
O1689       O  0.57685126  0.51445863  0.03018126    -0.86600
O1690       O  0.56832980  0.57086352  0.03012754    -0.86200
O1691       O  0.99659270  0.97403334  0.02646921    -0.73000
O1692       O  0.48909160  0.52553306  0.02869899    -0.85100
Zr1693     Zr  0.53340173  0.52327755  0.44867310     2.26400
Zr1694     Zr  0.53949360  0.96742627  0.00041108     2.06300
Zr1695     Zr  0.52603224  0.57806332  0.50212585     2.10000
Zr1696     Zr  0.61140691  0.56380340  0.00379489     1.78800
O1697       O  0.47310648  0.58403720  0.49996749    -0.93900
O1698       O  0.65614461  0.54715552  0.00341024    -0.41700
O1699       O  0.57026311  0.57240933  0.47522819    -0.78400
O1700       O  0.57877610  0.51903284  0.47442408    -0.97100
O1701       O  0.49899840  0.97427077  0.47261961    -0.90400
O1702       O  0.48972289  0.52995990  0.47399536    -0.93200
C1703       C  0.62479698  0.57121024  0.07552242     1.00500
C1704       C  0.51815981  0.58196229  0.07620686     1.13500
C1705       C  0.53523588  0.95543817  0.07432378     1.04300
O1706       O  0.59360300  0.96330546  0.00339780    -0.95400
O1707       O  0.55067546  0.95320681  0.45225104    -0.91100
O1708       O  0.54057771  0.98401568  0.42155690    -0.84300
C1709       C  0.54733077  0.96169116  0.42688107     1.10900
O1710       O  0.91756687  0.95728547  0.04120918    -0.97300
Zr1711     Zr  0.95431917  0.98078113  0.49799300     1.88900
O1712       O  0.97460795  0.49281461  0.41885940    -0.74000
O1713       O  0.00001779  0.91076148  0.49689388    -0.53300
O1714       O  0.92111610  0.92142241  0.50072337    -0.97900
O1715       O  0.90633793  0.49416555  0.49425889    -0.55100
O1716       O  0.92746332  0.96280648  0.45090854    -0.74500
C1717       C  0.94158275  0.97079820  0.42590257     0.97800
O1718       O  0.57925842  0.54835913  0.41095761    -0.63300
O1719       O  0.56643136  0.63418617  0.00569174    -0.58100
O1720       O  0.52700354  0.56236747  0.42242730    -0.94800
O1721       O  0.52928731  0.59984120  0.45344756    -0.93200
O1722       O  0.65235172  0.62285523  0.00681034    -0.93600
O1723       O  0.65061494  0.59167411  0.46172370    -0.92400
C1724       C  0.52816114  0.58889908  0.42797138     1.16700
H1725       H  0.58082286  0.58924527  0.04294509     0.32600
H1726       H  0.59532040  0.51716317  0.46163795     0.43500
H1727       H  0.97304944  0.53433961  0.45737162     0.37000
H1728       H  0.98277332  0.95561472  0.03907606     0.33500
H1729       H  0.67916296  0.56666299  0.01011004     0.25300
H1730       H  0.98426604  0.90477650  0.51410416     0.31200
H1731       H  0.89592300  0.91417067  0.49446764     0.37100
H1732       H  0.63808387  0.63063170  0.01705205     0.31600
H1733       H  0.57904072  0.63775006  0.02418627     0.30500
H1734       H  0.48373368  0.60790131  0.49872426     0.32100
H1735       H  0.90798797  0.50325936  0.47502274     0.31100
H1736       H  0.64932939  0.57345889  0.45078325     0.35100
H1737       H  0.59348758  0.57194615  0.41564115     0.27800
H1738       H  0.97880298  0.47444410  0.08981822     0.32100
H1739       H  0.89190040  0.94358285  0.03460977     0.34900
H1740       H  0.58564354  0.63929887  0.99121082     0.27500
H1741       H  0.59668787  0.54109820  0.41417515     0.40400
H1742       H  0.60446746  0.97287800  0.02218617     0.30500
H1743       H  0.64856704  0.53134394  0.01927642     0.38100
H1744       H  0.91443368  0.51295671  0.50731657     0.29900
H1745       H  0.97795579  0.90442506  0.01164833     0.30000
H1746       H  0.97073291  0.00383993  0.08826717     0.30200
Zr1747     Zr  0.53172895  0.52187360  0.30507984     2.17500
O1748       O  0.57445998  0.54414015  0.34476855    -0.52100
O1749       O  0.97045849  0.48811319  0.32712557    -0.75300
O1750       O  0.52610561  0.56192217  0.33104218    -0.82100
O1751       O  0.54824154  0.95126334  0.29909121    -0.83800
O1752       O  0.52959647  0.59988518  0.30042074    -0.79500
O1753       O  0.54003458  0.98345393  0.32998722    -0.91100
O1754       O  0.92474112  0.96215493  0.29972942    -0.77100
O1755       O  0.49423189  0.52911058  0.27668476    -0.86600
O1756       O  0.49622094  0.97217679  0.28031439    -0.86200
O1757       O  0.57017944  0.57069789  0.27871046    -0.73000
O1758       O  0.57496848  0.51573637  0.27796799    -0.85100
Zr1759     Zr  0.53296773  0.52234700  0.19792433     2.26400
Zr1760     Zr  0.52691436  0.57752425  0.25208431     2.06300
Zr1761     Zr  0.53881151  0.96681815  0.25101643     2.10000
Zr1762     Zr  0.95240921  0.97976525  0.25254777     1.78800
O1763       O  0.59039398  0.95897906  0.24712788    -0.93900
O1764       O  0.90199059  0.48969550  0.24880740    -0.41700
O1765       O  0.99317451  0.97230568  0.22262975    -0.78400
O1766       O  0.48955228  0.52822756  0.22533952    -0.97100
O1767       O  0.56947216  0.57186652  0.22316590    -0.90400
O1768       O  0.57530744  0.51416733  0.22295586    -0.93200
C1769       C  0.93945112  0.96971936  0.32448889     1.00500
C1770       C  0.54623457  0.96076326  0.32449870     1.13500
C1771       C  0.52803826  0.58877925  0.32576075     1.04300
O1772       O  0.47852333  0.58960528  0.25572326    -0.95400
O1773       O  0.51783866  0.59387032  0.20406815    -0.91100
O1774       O  0.52853869  0.56332185  0.17304072    -0.84300
C1775       C  0.52121638  0.58534330  0.17857858     1.10900
O1776       O  0.64918001  0.57951863  0.29195097    -0.97300
Zr1777     Zr  0.61134962  0.56336840  0.24922674     1.88900
O1778       O  0.58988012  0.55280103  0.17219988    -0.74000
O1779       O  0.57593326  0.63460546  0.24740644    -0.53300
O1780       O  0.64834067  0.62280350  0.25114048    -0.97900
O1781       O  0.65697667  0.54770826  0.24671487    -0.55100
O1782       O  0.63872672  0.57949806  0.20184293    -0.74500
C1783       C  0.62429637  0.57158647  0.17698245     0.97800
O1784       O  0.98668227  0.49529910  0.15495976    -0.63300
O1785       O  0.98827709  0.90676344  0.25388949    -0.58100
O1786       O  0.53724601  0.98208587  0.17130658    -0.94800
O1787       O  0.53323764  0.94395210  0.20213048    -0.93200
O1788       O  0.91635559  0.92024502  0.25110630    -0.93600
O1789       O  0.91223672  0.96050260  0.21114857    -0.92400
C1790       C  0.53490463  0.95505287  0.17669197     1.16700
H1791       H  0.98077580  0.95236670  0.29108840     0.32600
H1792       H  0.96725264  0.52590421  0.20904232     0.43500
H1793       H  0.59024876  0.01129714  0.20959588     0.37000
H1794       H  0.58423857  0.58896261  0.29144473     0.33500
H1795       H  0.87966410  0.47001805  0.25625768     0.25300
H1796       H  0.56328077  0.64688080  0.24786363     0.31200
H1797       H  0.64317415  0.63008825  0.23302145     0.37100
H1798       H  0.92719068  0.91419892  0.23536537     0.31600
H1799       H  0.98319196  0.89807051  0.23416921     0.30500
H1800       H  0.58158349  0.93952376  0.23477915     0.32100
H1801       H  0.65701032  0.54126846  0.22662679     0.31100
H1802       H  0.92374052  0.44929798  0.19605505     0.35100
H1803       H  0.97733509  0.97590861  0.15648165     0.27800
H1804       H  0.55901678  0.54253793  0.36119242     0.32100
H1805       H  0.67407241  0.59678561  0.28572128     0.34900
H1806       H  0.00078483  0.89665763  0.26286415     0.27500
H1807       H  0.96793537  0.50115230  0.15789319     0.40400
H1808       H  0.95161601  0.56841250  0.23412484     0.30500
H1809       H  0.90853538  0.50655660  0.26366560     0.38100
H1810       H  0.64582507  0.52694396  0.25745244     0.29900
H1811       H  0.58938225  0.64012706  0.26568796     0.30000
H1812       H  0.59033450  0.56783360  0.34093041     0.30200
C1813       C  0.70283805  0.61540123  0.12613523     0.79400
N1814       N  0.68404696  0.60476415  0.15139245    -0.78900
C1815       C  0.64710771  0.58394866  0.15125500     0.81900
N1816       N  0.62951822  0.57381985  0.12621492    -0.78800
C1817       C  0.64735390  0.58373316  0.10114078     0.82000
N1818       N  0.68426076  0.60463058  0.10089275    -0.80500
C1819       C  0.48859829  0.62385229  0.12710262     0.79400
N1820       N  0.49598874  0.61397114  0.10189267    -0.78900
C1821       C  0.51313443  0.59701740  0.10202098     0.81900
N1822       N  0.52237284  0.58999009  0.12732104    -0.78800
C1823       C  0.51523459  0.59934354  0.15258626     0.82000
N1824       N  0.49811506  0.61641053  0.15253774    -0.80500
C1825       C  0.86086253  0.69643817  0.12393459     0.79400
N1826       N  0.87998053  0.72961309  0.12449491    -0.78900
C1827       C  0.91723528  0.74656373  0.12557171     0.81900
N1828       N  0.93509987  0.73023894  0.12638525    -0.78800
C1829       C  0.91606015  0.69718580  0.12654732     0.82000
N1830       N  0.87899409  0.68040099  0.12501098    -0.80500
C1831       C  0.00826569  0.88710124  0.12342072     0.79400
N1832       N  0.01789023  0.90412228  0.09837402    -0.78900
C1833       C  0.53278831  0.93667183  0.10007435     0.81900
N1834       N  0.54072539  0.95249554  0.12547096    -0.78800
C1835       C  0.53262193  0.93643841  0.15071249     0.82000
N1836       N  0.01557502  0.90334508  0.14883199    -0.80500
C1837       C  0.96779263  0.79758472  0.10488617    -0.21100
C1838       C  0.93879612  0.78248035  0.12457935    -0.07600
C1839       C  0.93249196  0.80177138  0.14367667     0.13800
C1840       C  0.95601498  0.83581936  0.14298908    -0.21100
C1841       C  0.98498044  0.85106022  0.12313058    -0.07700
C1842       C  0.99060312  0.83165345  0.10352957     0.13200
C1843       C  0.51787849  0.84612249  0.08105892    -0.24500
H1844       H  0.97240244  0.78254119  0.09027956     0.14500
H1845       H  0.95138838  0.85066829  0.15781217     0.14500
C1846       C  0.90176094  0.78659971  0.16528961    -0.24400
H1847       H  0.51869193  0.82713313  0.06808827     0.04700
H1848       H  0.54539626  0.86201629  0.09064366     0.08000
H1849       H  0.51176071  0.86057781  0.06630172     0.08000
H1850       H  0.90454561  0.76923584  0.17893188     0.07900
H1851       H  0.87492935  0.77344850  0.15421843     0.07900
H1852       H  0.90190815  0.80528981  0.17938090     0.04700
C1853       C  0.98142328  0.66912628  0.14423210    -0.21100
C1854       C  0.97087472  0.64419330  0.12398671    -0.07600
C1855       C  0.43628853  0.63043204  0.11190319     0.13200
C1856       C  0.92410697  0.65390362  0.10689781    -0.21100
C1857       C  0.93535443  0.67941752  0.12654506    -0.07700
C1858       C  0.96391984  0.68682132  0.14584108     0.13200
C1859       C  0.97488229  0.71216838  0.16895414    -0.24500
H1860       H  0.00346516  0.67474781  0.15889000     0.14500
H1861       H  0.90177796  0.64803811  0.09247275     0.14500
C1862       C  0.41797367  0.59851517  0.09579356    -0.24400
H1863       H  0.99612509  0.71324399  0.18317585     0.04700
H1864       H  0.95059027  0.70612196  0.18227673     0.08000
H1865       H  0.98637601  0.73672198  0.15941262     0.08000
H1866       H  0.41296686  0.57840914  0.11032694     0.07900
H1867       H  0.43553698  0.59991397  0.07769038     0.07900
H1868       H  0.39115539  0.59244653  0.08685412     0.04700
C1869       C  0.76299401  0.63460459  0.10302888    -0.21100
C1870       C  0.74336292  0.63760809  0.12575036    -0.07600
C1871       C  0.76286506  0.66173243  0.14699739     0.13200
C1872       C  0.80120742  0.68173515  0.14497949    -0.21100
C1873       C  0.82057759  0.67756170  0.12296119    -0.07700
C1874       C  0.80133255  0.65398220  0.10154709     0.13200
C1875       C  0.82105461  0.64950092  0.07686709    -0.24500
H1876       H  0.74834445  0.61637236  0.08663563     0.14500
H1877       H  0.81635216  0.69995375  0.16129416     0.14500
C1878       C  0.74385495  0.66694751  0.17175234    -0.24400
H1879       H  0.80158078  0.63121892  0.06128097     0.04700
H1880       H  0.83879024  0.64077785  0.08467768     0.08000
H1881       H  0.83812112  0.67305104  0.06549822     0.08000
H1882       H  0.73118457  0.64527168  0.18592071     0.07900
H1883       H  0.72256187  0.67144156  0.16377523     0.07900
H1884       H  0.76332401  0.68829970  0.18495528     0.04700
C1885       C  0.76232422  0.89361428  0.39135645    -0.21100
C1886       C  0.74494450  0.86510628  0.37468463    -0.07600
C1887       C  0.76666292  0.85576013  0.35940247     0.13200
C1888       C  0.80508459  0.87571090  0.36070286    -0.21100
C1889       C  0.82223927  0.90425677  0.37727557    -0.07700
C1890       C  0.80060469  0.91317855  0.39302136     0.13200
C1891       C  0.81759634  0.94404040  0.41062700    -0.24500
H1892       H  0.74576921  0.90076197  0.40311294     0.14500
H1893       H  0.82190529  0.86908467  0.34864456     0.14500
C1894       C  0.74982263  0.82567769  0.34081677    -0.24400
H1895       H  0.79650167  0.94816815  0.42001683     0.04700
H1896       H  0.83602684  0.96542085  0.39705023     0.08000
H1897       H  0.83340856  0.94246898  0.42852657     0.08000
H1898       H  0.73176025  0.82688769  0.32464375     0.07900
H1899       H  0.73370806  0.80348945  0.35410532     0.07900
H1900       H  0.77103460  0.82327650  0.32931635     0.04700
C1901       C  0.58724115  0.87926849  0.35280738    -0.21100
C1902       C  0.59593120  0.90213272  0.37472987    -0.07600
C1903       C  0.62374333  0.90813431  0.39449307     0.13200
C1904       C  0.64139681  0.89057869  0.39201421    -0.21100
C1905       C  0.63159657  0.86685922  0.37073061    -0.07700
C1906       C  0.60449680  0.86143425  0.35066817     0.13200
C1907       C  0.59382791  0.83717471  0.32676045    -0.24500
H1908       H  0.56627347  0.87487088  0.33747892     0.14500
H1909       H  0.66253384  0.89492382  0.40715633     0.14500
C1910       C  0.63585911  0.93350728  0.41773792    -0.24400
H1911       H  0.57512502  0.83859922  0.31136658     0.04700
H1912       H  0.57902895  0.81225142  0.33582783     0.08000
H1913       H  0.61861207  0.84178964  0.31487182     0.08000
H1914       H  0.61331848  0.92615483  0.43339123     0.07900
H1915       H  0.64408193  0.95755666  0.40832110     0.07900
H1916       H  0.65972340  0.93644911  0.42967393     0.04700
C1917       C  0.57918740  0.70955211  0.35188924    -0.21100
C1918       C  0.58020985  0.69354421  0.37657250    -0.07600
C1919       C  0.60525247  0.71239069  0.39862670     0.13200
C1920       C  0.62666219  0.74650596  0.39590753    -0.21100
C1921       C  0.62488203  0.76212999  0.37144255    -0.07700
C1922       C  0.60195372  0.74341819  0.34874557     0.13200
C1923       C  0.60310396  0.75878896  0.32055500    -0.24500
H1924       H  0.56104676  0.69542349  0.33454485     0.14500
H1925       H  0.64512422  0.76116023  0.41293372     0.14500
C1926       C  0.61124144  0.69714895  0.42442480    -0.24400
H1927       H  0.58473764  0.74032159  0.30460581     0.04700
H1928       H  0.63149485  0.77164748  0.31188101     0.08000
H1929       H  0.59429813  0.77641885  0.32331365     0.08000
H1930       H  0.61886366  0.67937030  0.41752226     0.07900
H1931       H  0.58610464  0.68483399  0.43783295     0.07900
H1932       H  0.63379759  0.71567520  0.43806116     0.04700
C1933       C  0.56054727  0.65763100  0.87893884     0.79400
N1934       N  0.55092395  0.64000141  0.90361945    -0.78900
C1935       C  0.53224950  0.60694126  0.90292195     0.81900
N1936       N  0.52354561  0.59161825  0.87731456    -0.78800
C1937       C  0.53259503  0.60830170  0.85239891     0.82000
N1938       N  0.55153336  0.64147309  0.85325613    -0.80500
C1939       C  0.57407398  0.91787159  0.87538222     0.79400
N1940       N  0.56616280  0.92719818  0.90066325    -0.78900
C1941       C  0.54923153  0.94431996  0.90060921     0.81900
N1942       N  0.54089233  0.95219757  0.87529472    -0.78800
C1943       C  0.54856410  0.94336107  0.84998269     0.82000
N1944       N  0.56534316  0.92604004  0.84998299    -0.80500
C1945       C  0.70522201  0.84964727  0.87546195     0.79400
N1946       N  0.68677841  0.81649643  0.87674865    -0.78900
C1947       C  0.64952035  0.79890064  0.87651780     0.81900
N1948       N  0.63076171  0.81437100  0.87508916    -0.78800
C1949       C  0.64894079  0.84737122  0.87369134     0.82000
N1950       N  0.68613617  0.86484867  0.87388749    -0.80500
C1951       C  0.86328599  0.93319106  0.87488510     0.79400
N1952       N  0.88129340  0.94201457  0.90046585    -0.78900
C1953       C  0.91845680  0.96159076  0.90075590     0.81900
N1954       N  0.93695157  0.97180644  0.87593758    -0.78800
C1955       C  0.91979375  0.96326690  0.85068670     0.82000
N1956       N  0.88275737  0.94376094  0.84998382    -0.80500
Zr1957     Zr  0.53517058  0.52365073  0.55501053     2.17500
O1958       O  0.99324172  0.50381497  0.59195745    -0.52100
O1959       O  0.59136076  0.55500704  0.58061434    -0.75300
O1960       O  0.54076092  0.98381240  0.58012991    -0.82100
O1961       O  0.51863058  0.59420768  0.55089320    -0.83800
O1962       O  0.53686505  0.94601285  0.54867743    -0.79500
O1963       O  0.52630574  0.56152486  0.58113190    -0.91100
O1964       O  0.64059384  0.58164468  0.55127346    -0.77100
O1965       O  0.57434969  0.51794789  0.52648267    -0.86600
O1966       O  0.56987005  0.57381269  0.53025624    -0.86200
O1967       O  0.99667941  0.97493533  0.52670569    -0.73000
O1968       O  0.49046159  0.52831448  0.52890256    -0.85100
Zr1969     Zr  0.53222764  0.52080228  0.94837310     2.26400
Zr1970     Zr  0.54272354  0.96990819  0.50067258     2.06300
Zr1971     Zr  0.52454313  0.57526996  0.00226613     2.10000
Zr1972     Zr  0.61272428  0.56650066  0.50401407     1.78800
O1973       O  0.47127416  0.58057881  0.99858250    -0.93900
O1974       O  0.65769264  0.55020327  0.50115980    -0.41700
O1975       O  0.56860702  0.56948249  0.97547181    -0.78400
O1976       O  0.57661593  0.51601170  0.97482478    -0.97100
O1977       O  0.49604838  0.97167342  0.97191451    -0.90400
O1978       O  0.48857315  0.52717487  0.97406649    -0.93200
C1979       C  0.62575615  0.57389711  0.57609775     1.00500
C1980       C  0.52052659  0.58447325  0.57611964     1.13500
C1981       C  0.53809122  0.95667095  0.57425750     1.04300
O1982       O  0.59467965  0.96289646  0.50570359    -0.95400
O1983       O  0.54761959  0.95087421  0.95194383    -0.91100
O1984       O  0.53639816  0.98085974  0.92103620    -0.84300
C1985       C  0.54393526  0.95905621  0.92651523     1.10900
O1986       O  0.91768475  0.96795023  0.54144545    -0.97300
Zr1987     Zr  0.95446900  0.98048245  0.99814579     1.88900
O1988       O  0.97634727  0.49025750  0.91966611    -0.74000
O1989       O  0.99658739  0.90881829  0.99684853    -0.53300
O1990       O  0.91910148  0.92117854  0.99374057    -0.97900
O1991       O  0.90630798  0.49364418  0.99460542    -0.55100
O1992       O  0.92590787  0.96608741  0.95141875    -0.74500
C1993       C  0.94068093  0.97329821  0.92661899     0.97800
O1994       O  0.57867316  0.54584612  0.91108837    -0.63300
O1995       O  0.56841969  0.63702806  0.50345056    -0.58100
O1996       O  0.52700050  0.56058543  0.92223726    -0.94800
O1997       O  0.53028633  0.59810474  0.95379991    -0.93200
O1998       O  0.65231126  0.62572950  0.50767739    -0.93600
O1999       O  0.64889233  0.58731885  0.96109266    -0.92400
C2000       C  0.52917081  0.58748608  0.92820721     1.16700
H2001       H  0.58232410  0.59211855  0.54316302     0.32600
H2002       H  0.59307077  0.51400946  0.96201570     0.43500
H2003       H  0.97384822  0.53366943  0.95819472     0.37000
H2004       H  0.98310999  0.95660280  0.53943224     0.33500
H2005       H  0.68164223  0.57067740  0.50409120     0.25300
H2006       H  0.01013454  0.89899738  0.00445003     0.31200
H2007       H  0.89391189  0.91548313  0.98904041     0.37100
H2008       H  0.63626127  0.63334137  0.51476867     0.31600
H2009       H  0.58072061  0.64145880  0.52218080     0.30500
H2010       H  0.48105279  0.60272453  0.99070583     0.32100
H2011       H  0.90937564  0.50410238  0.97581049     0.31100
H2012       H  0.64840728  0.56883896  0.95127828     0.35100
H2013       H  0.59400765  0.56912792  0.91663594     0.27800
H2014       H  0.00916624  0.50577464  0.60798410     0.32100
H2015       H  0.89463528  0.94696252  0.53761025     0.34900
H2016       H  0.58775970  0.64123043  0.48938362     0.27500
H2017       H  0.59492663  0.53720895  0.91373935     0.40400
H2018       H  0.61559470  0.98280636  0.49712592     0.30500
H2019       H  0.65372371  0.53734361  0.51869002     0.38100
H2020       H  0.91400454  0.51159570  0.00856036     0.29900
H2021       H  0.98332495  0.90719070  0.48089402     0.30000
H2022       H  0.97710121  0.97839555  0.59033614     0.30200
Zr2023     Zr  0.53057543  0.52090243  0.80566623     2.17500
O2024       O  0.57143374  0.53993536  0.84648961    -0.52100
O2025       O  0.97641959  0.49154258  0.82746660    -0.75300
O2026       O  0.52761206  0.56276871  0.83119475    -0.82100
O2027       O  0.54533192  0.94830821  0.79851551    -0.83800
O2028       O  0.52994415  0.60051312  0.80090125    -0.79500
O2029       O  0.53626141  0.97998863  0.82936991    -0.91100
O2030       O  0.92815251  0.96839766  0.80046084    -0.77100
O2031       O  0.48747240  0.52850094  0.78121358    -0.86600
O2032       O  0.49323499  0.96976200  0.77903456    -0.86200
O2033       O  0.56772543  0.56978760  0.77897594    -0.73000
O2034       O  0.57413043  0.51541609  0.77825853    -0.85100
Zr2035     Zr  0.53131799  0.52139749  0.69842671     2.26400
Zr2036     Zr  0.52407092  0.57647410  0.75268860     2.06300
Zr2037     Zr  0.53538187  0.96350944  0.75020681     2.10000
Zr2038     Zr  0.95451078  0.98179739  0.75289908     1.78800
O2039       O  0.57836693  0.94490167  0.74811421    -0.93900
O2040       O  0.91072180  0.49913386  0.75083875    -0.41700
O2041       O  0.99638906  0.97556043  0.72326441    -0.78400
O2042       O  0.48774742  0.52698417  0.72586996    -0.97100
O2043       O  0.56684994  0.57083052  0.72400568    -0.90400
O2044       O  0.57428572  0.51408506  0.72341101    -0.93200
C2045       C  0.94279120  0.97580522  0.82520355     1.00500
C2046       C  0.54290335  0.95754246  0.82396672     1.13500
C2047       C  0.52945379  0.58967621  0.82617924     1.04300
O2048       O  0.47099539  0.58209567  0.75725293    -0.95400
O2049       O  0.51660101  0.59293913  0.70419177    -0.91100
O2050       O  0.52632738  0.56169870  0.67317367    -0.84300
C2051       C  0.51980626  0.58418717  0.67872370     1.10900
O2052       O  0.64644422  0.58497179  0.79290241    -0.97300
Zr2053     Zr  0.60959220  0.56340774  0.74980337     1.88900
O2054       O  0.58829222  0.55269689  0.67274911    -0.74000
O2055       O  0.56703806  0.63496329  0.74732345    -0.53300
O2056       O  0.64761359  0.62276470  0.74739109    -0.97900
O2057       O  0.65598345  0.54868291  0.75016889    -0.55100
O2058       O  0.63703240  0.57835806  0.70261115    -0.74500
C2059       C  0.62272380  0.57114681  0.67772336     0.97800
O2060       O  0.98753220  0.49807482  0.65773635    -0.63300
O2061       O  0.99911834  0.90982627  0.75212345    -0.58100
O2062       O  0.53667169  0.98071729  0.67110277    -0.94800
O2063       O  0.53440533  0.94294384  0.70144071    -0.93200
O2064       O  0.91463074  0.92277026  0.75714359    -0.93600
O2065       O  0.91486642  0.95611424  0.71184367    -0.92400
C2066       C  0.53559385  0.95420639  0.67622601     1.16700
H2067       H  0.98462447  0.95580595  0.79074441     0.32600
H2068       H  0.97428956  0.53234423  0.70941664     0.43500
H2069       H  0.58929376  0.00796203  0.70935413     0.37000
H2070       H  0.58182270  0.58813633  0.79161438     0.33500
H2071       H  0.89014428  0.48277135  0.76279961     0.25300
H2072       H  0.55228355  0.64491306  0.75130965     0.31200
H2073       H  0.63317520  0.62933302  0.73599308     0.37100
H2074       H  0.93011715  0.91412156  0.75117606     0.31600
H2075       H  0.98560002  0.90600752  0.77032116     0.30500
H2076       H  0.56415612  0.92197232  0.75478040     0.32100
H2077       H  0.67855838  0.56833506  0.74299285     0.31100
H2078       H  0.92019165  0.47824581  0.69791421     0.35100
H2079       H  0.97115366  0.97384094  0.66598701     0.27800
H2080       H  0.55587631  0.53957893  0.86231700     0.32100
H2081       H  0.67225108  0.59794284  0.78629832     0.34900
H2082       H  0.98047004  0.90428540  0.73720385     0.27500
H2083       H  0.97072424  0.50608010  0.66091320     0.40400
H2084       H  0.96063000  0.57574293  0.73702831     0.30500
H2085       H  0.92213957  0.51947756  0.76226201     0.38100
H2086       H  0.64885578  0.53239060  0.73469589     0.29900
H2087       H  0.58378594  0.64126841  0.76381107     0.30000
H2088       H  0.58927490  0.56338279  0.84283961     0.30200
C2089       C  0.70243198  0.61693645  0.62838069     0.79400
N2090       N  0.68289436  0.60513199  0.65318986    -0.78900
C2091       C  0.64598927  0.58431268  0.65232441     0.81900
N2092       N  0.62907976  0.57525734  0.62695620    -0.78800
C2093       C  0.64764608  0.58616707  0.60220150     0.82000
N2094       N  0.68457584  0.60713887  0.60273574    -0.80500
C2095       C  0.49036446  0.62518964  0.62749826     0.79400
N2096       N  0.49893072  0.61642738  0.60224249    -0.78900
C2097       C  0.51542278  0.59897113  0.60221850     0.81900
N2098       N  0.52310739  0.59044316  0.62748740    -0.78800
C2099       C  0.51505069  0.59896751  0.65281224     0.82000
N2100       N  0.49839388  0.61637376  0.65285336    -0.80500
C2101       C  0.86104634  0.69730640  0.62919857     0.79400
N2102       N  0.88036648  0.73054285  0.62947137    -0.78900
C2103       C  0.91774068  0.74758457  0.62946688     0.81900
N2104       N  0.93540532  0.73101264  0.62934275    -0.78800
C2105       C  0.91627360  0.69792674  0.62944045     0.82000
N2106       N  0.87914467  0.68117647  0.62905552    -0.80500
C2107       C  0.00859208  0.88880336  0.62431974     0.79400
N2108       N  0.01767642  0.90524467  0.59890398    -0.78900
C2109       C  0.53475789  0.93724401  0.59969947     0.81900
N2110       N  0.54280536  0.95272429  0.62523729    -0.78800
C2111       C  0.53413089  0.93625098  0.65024138     0.82000
N2112       N  0.01616103  0.90559436  0.64945958    -0.80500
C2113       C  0.97259820  0.79874127  0.61200628    -0.21100
C2114       C  0.93970497  0.78385461  0.62788434    -0.07600
C2115       C  0.92970449  0.80390135  0.64244064     0.13800
C2116       C  0.95296689  0.83802582  0.64092584    -0.21100
C2117       C  0.98554011  0.85272919  0.62482065    -0.07700
C2118       C  0.99541250  0.83285319  0.61007201     0.13200
C2119       C  0.51698098  0.84638639  0.57911559    -0.24500
H2120       H  0.98045439  0.78355921  0.60082379     0.14500
H2121       H  0.94549825  0.85343496  0.65220324     0.14500
C2122       C  0.89532211  0.78974643  0.66032846    -0.24400
H2123       H  0.51764048  0.82743045  0.56597997     0.04700
H2124       H  0.54490788  0.86289578  0.58779545     0.08000
H2125       H  0.50950395  0.86019759  0.56472160     0.08000
H2126       H  0.89531902  0.77320923  0.67676150     0.07900
H2127       H  0.87077881  0.77607750  0.64658939     0.07900
H2128       H  0.89315339  0.80907780  0.67149435     0.04700
C2129       C  0.97947632  0.66752829  0.64686339    -0.21100
C2130       C  0.97128511  0.64494612  0.62471580    -0.07600
C2131       C  0.44127161  0.63445701  0.60878341     0.13200
C2132       C  0.92670066  0.65720415  0.60664643    -0.21100
C2133       C  0.93560289  0.68017077  0.62842623    -0.07700
C2134       C  0.96207076  0.68527679  0.64892403     0.13200
C2135       C  0.97109248  0.70852463  0.67355106    -0.24500
H2136       H  0.99983145  0.67149032  0.66261895     0.14500
H2137       H  0.90608061  0.65329685  0.59115335     0.14500
C2138       C  0.42703737  0.60623728  0.58812662    -0.24400
H2139       H  0.99107135  0.70826729  0.68835355     0.04700
H2140       H  0.94574730  0.70146762  0.68584300     0.08000
H2141       H  0.98335181  0.73383554  0.66553367     0.08000
H2142       H  0.41981803  0.58356352  0.59976533     0.07900
H2143       H  0.44800477  0.61144381  0.57155053     0.07900
H2144       H  0.40205448  0.60180137  0.57691669     0.04700
C2145       C  0.76334506  0.63772395  0.60589548    -0.21100
C2146       C  0.74306685  0.63910527  0.62895714    -0.07600
C2147       C  0.76210909  0.66153878  0.65150928     0.13200
C2148       C  0.80066235  0.68100253  0.65062981    -0.21100
C2149       C  0.82061145  0.67845287  0.62807139    -0.07700
C2150       C  0.80174810  0.65692864  0.60524543     0.13200
C2151       C  0.82203131  0.65459802  0.57984181    -0.24500
H2152       H  0.74913483  0.62097962  0.58842721     0.14500
H2153       H  0.81541911  0.69779388  0.66796255     0.14500
C2154       C  0.74234695  0.66591751  0.67621375    -0.24400
H2155       H  0.80293311  0.63792332  0.56320187     0.04700
H2156       H  0.83941828  0.64503414  0.58649404     0.08000
H2157       H  0.83954626  0.67912419  0.57013608     0.08000
H2158       H  0.72837154  0.64347747  0.68942531     0.07900
H2159       H  0.72202555  0.67159910  0.66812487     0.07900
H2160       H  0.76155557  0.68628812  0.69041409     0.04700
C2161       C  0.76277095  0.89577424  0.85575685    -0.21100
C2162       C  0.74574640  0.86953775  0.87493742    -0.07600
C2163       C  0.76752530  0.86436879  0.89410118     0.13200
C2164       C  0.80577640  0.88561922  0.89354546    -0.21100
C2165       C  0.82284833  0.91168985  0.87417696    -0.07700
C2166       C  0.80098126  0.91687067  0.85500681     0.13200
C2167       C  0.81731878  0.94528730  0.83454623    -0.24500
H2168       H  0.74595555  0.89983181  0.84124736     0.14500
H2169       H  0.82252543  0.88175074  0.90827691     0.14500
C2170       C  0.75065773  0.83738208  0.91590765    -0.24400
H2171       H  0.79580158  0.94683740  0.82288982     0.04700
H2172       H  0.83448097  0.94255231  0.81832348     0.08000
H2173       H  0.83417641  0.96852651  0.84644050     0.08000
H2174       H  0.73644573  0.81327548  0.90506286     0.07900
H2175       H  0.73078650  0.83978348  0.92937549     0.07900
H2176       H  0.77168385  0.83814915  0.93018156     0.04700
C2177       C  0.57960646  0.87198067  0.85835874    -0.21100
C2178       C  0.59336479  0.90000390  0.87540818    -0.07600
C2179       C  0.62555170  0.91076567  0.89151965     0.13200
C2180       C  0.64286044  0.89293351  0.89036241    -0.21100
C2181       C  0.62880057  0.86454696  0.87373446    -0.07700
C2182       C  0.59672661  0.85390158  0.85744025     0.13200
C2183       C  0.58111050  0.82437176  0.83825611    -0.24500
H2184       H  0.55511035  0.86406486  0.84586318     0.14500
H2185       H  0.66748975  0.90110888  0.90275981     0.14500
C2186       C  0.64265491  0.94160990  0.90914815    -0.24400
H2187       H  0.55730433  0.82094164  0.82589040     0.04700
H2188       H  0.57141752  0.80198245  0.85112517     0.08000
H2189       H  0.60238697  0.82733203  0.82280573     0.08000
H2190       H  0.62406233  0.93890874  0.92692760     0.07900
H2191       H  0.64825668  0.96256026  0.89551303     0.07900
H2192       H  0.66903500  0.94731538  0.91872645     0.04700
C2193       C  0.59022029  0.71095846  0.85357206    -0.21100
C2194       C  0.58390526  0.69417834  0.87958107    -0.07600
C2195       C  0.60114375  0.71281324  0.90473078     0.13200
C2196       C  0.62360108  0.74700499  0.90282702    -0.21100
C2197       C  0.62905809  0.76309997  0.87687717    -0.07700
C2198       C  0.61249090  0.74502573  0.85197245     0.13200
C2199       C  0.61863250  0.76175176  0.82358266    -0.24500
H2200       H  0.57756834  0.69747059  0.83417008     0.14500
H2201       H  0.63643767  0.76143412  0.92182673     0.14500
C2202       C  0.59647805  0.69763713  0.93377365    -0.24400
H2203       H  0.60425736  0.74397308  0.80603657     0.04700
H2204       H  0.64840985  0.77597684  0.81850497     0.08000
H2205       H  0.60821985  0.77849985  0.82437320     0.08000
H2206       H  0.60654495  0.68058814  0.93336939     0.07900
H2207       H  0.56720401  0.68464656  0.94034988     0.07900
H2208       H  0.61230530  0.71625574  0.95044379     0.04700
loop_ 
_geom_bond_atom_site_label_1 
_geom_bond_atom_site_label_2 
_geom_bond_distance 
_geom_bond_site_symmetry_2 
_ccdc_geom_bond_type 
C1            N2   1.366       .  A
C1            N6   1.371       .  A
C1          C262   1.486       .  S
N2            C3   1.356       .  A
C3            N4   1.354       .  A
C3           C68   1.476       .  S
N4            C5   1.354       .  A
C5            N6   1.360       .  A
C5          C115   1.482       .  S
C7            N8   1.368       .  A
C7           N12   1.372       .  A
C7          C246   1.495       .  S
N8            C9   1.354       .  A
C9           N10   1.350       .  A
C9           C53   1.478       .  S
N10          C11   1.352       .  A
C11          N12   1.357       .  A
C11         C114   1.478       .  S
C13          N14   1.361       .  A
C13          N18   1.356       .  A
C13         C230   1.473       .  S
N14          C15   1.362       .  A
C15          N16   1.357       .  A
C15         C265   1.480       .  S
N16          C17   1.355       .  A
C17          N18   1.354       .  A
C17         C249   1.464       .  S
C19          N20   1.366       .  A
C19          N24   1.372       .  A
C19         C233   1.491       .  S
N20          C21   1.355       .  A
C21          N22   1.343       .  A
C21          C61   1.461       .  S
N22          C23   1.344       .  A
C23          N24   1.360       .  A
C23         C113   1.469       .  S
Zr25         O27   2.397       .  S
Zr25         O31   2.377       .  S
Zr25        O580   2.388   1_545  S
Zr25         O33   2.366       .  S
Zr25         O34   2.371       .  S
Zr25         O36   2.388   1_455  S
Zr25       O1691   2.386   1_445  S
Zr25       O1130   2.439   1_445  S
O26       Zr1129   2.429   1_565  S
O26          H82   0.988   1_565  S
O26         H642   0.990       .  S
O27          C47   1.280       .  A
O28        Zr577   2.392       .  S
O28          C49   1.278       .  A
O29        Zr315   2.480       .  S
O29          C48   1.292       .  A
O30         Zr38   2.485   1_554  S
O30          C49   1.292       .  A
O31          C48   1.276       .  A
O32         Zr40   2.439       .  S
O32          C47   1.281       .  A
O33         Zr40   2.381       .  S
O33        Zr590   2.396   1_544  S
O34         Zr40   2.377       .  S
O34        Zr315   2.393       .  S
O34          H69   0.965       .  S
O35       Zr1681   2.390       .  S
O35       Zr1142   2.408       .  S
O35        Zr331   2.394       .  S
O35          H72   0.966       .  S
O36        Zr315   2.404   1_655  S
O36       Zr1987   2.401   1_544  S
Zr37         O64   2.383       .  S
Zr37       O1160   2.398   1_445  S
Zr37        O604   2.386   1_545  S
Zr37         O43   2.386       .  S
Zr37         O44   2.390       .  S
Zr37         O46   2.370   1_455  S
Zr37        O597   2.368   1_445  S
Zr37         O62   2.432       .  S
Zr38        O327   2.493       .  S
Zr38       O1139   2.406   1_456  S
Zr38        O872   2.401       .  S
Zr38        O321   2.391   1_455  S
Zr38         O50   2.434   1_556  S
Zr38       O1437   2.438   1_455  S
Zr38        O585   2.301   1_556  S
Zr39         O65   2.486       .  S
Zr39        O305   2.484       .  S
Zr39         O43   2.396       .  S
Zr39         O46   2.390   1_455  S
Zr39        O310   2.398       .  S
Zr39        O312   2.402   1_455  S
Zr39         O41   2.435   1_455  S
Zr39        O339   2.436       .  S
Zr40        O319   2.407   1_554  S
Zr40        O320   2.400   1_554  S
Zr40         O66   2.436       .  S
Zr40         O42   2.437       .  S
Zr40        O343   2.436   1_554  S
O41          H78   0.990       .  S
O42          H73   0.990       .  S
O42          H87   0.990       .  S
O43        Zr316   2.397       .  S
O44        Zr866   2.404   1_545  S
O44        Zr316   2.399       .  S
O44          H70   0.965       .  S
O45        Zr589   2.261       .  S
O45        Zr314   2.296       .  S
O45       Zr1159   2.287   1_455  S
O46       Zr1711   2.381   1_545  S
O46        H1175   0.966       .  S
C47         C161   1.465       .  S
C48         C165   1.473       .  S
C49         C177   1.480       .  S
O50          H86   0.990   1_554  S
O51        Zr314   2.482       .  S
O51          C53   1.292       .  A
O52        Zr589   2.386       .  S
O52          C53   1.278       .  A
O54        Zr331   2.439       .  S
O54          H83   0.990       .  S
Zr55         O60   2.428       .  S
Zr55        O311   2.398       .  S
Zr55       O1968   2.400       .  S
Zr55       O1702   2.385       .  S
Zr55         O58   2.438       .  S
Zr55        O330   2.441       .  S
Zr55        O611   2.442       .  S
Zr55       O1149   2.286       .  S
O56       Zr1141   2.412   1_565  S
O56         C613   1.283       .  A
O57       Zr1418   2.440       .  S
O57          H74   0.991       .  S
O57         H365   0.990       .  S
O58          H75   0.990       .  S
O59        Zr607   2.440       .  S
O59          H79   0.990   1_565  S
O59          H88   0.990   1_565  S
O60          C61   1.280       .  A
C61         O608   1.281       .  A
O62          H81   0.990       .  S
O62          H85   0.990       .  S
O63        Zr315   2.437       .  S
O63          H77   0.990       .  S
O63          H84   0.990       .  S
O64          C68   1.278       .  A
O65          C68   1.293       .  A
O66          H76   0.990   1_554  S
O67        Zr316   2.438       .  S
O67          H80   0.989       .  S
H71        O1150   0.967       .  S
H89         O333   0.990   1_554  S
H90         O578   0.990       .  S
Zr91         O94   2.404       .  S
Zr91       O1197   2.396   1_445  S
Zr91        O649   2.384   1_545  S
Zr91        O101   2.385       .  S
Zr91        O102   2.385       .  S
Zr91        O652   2.370   1_445  S
Zr91         O92   2.431       .  S
Zr91         O99   2.262   1_455  S
O92         H148   0.988       .  S
O92         H156   0.990       .  S
O93       Zr1195   2.399   1_565  S
O93         C665   1.281       .  A
O94         C115   1.280       .  A
O95        Zr105   2.479       .  S
O95         C114   1.291       .  A
O96        Zr104   2.480       .  S
O96         C115   1.291       .  A
O97        Zr643   2.385       .  S
O97         C114   1.277       .  A
O98        Zr106   2.441       .  S
O98         C113   1.281       .  A
O99        Zr104   2.303   1_655  S
O99       Zr1762   2.289   1_545  S
O100       Zr105   2.402   1_655  S
O100       Zr643   2.368   1_655  S
O100      Zr1210   2.375       .  S
O100       H1239   0.965       .  S
O101       Zr104   2.407       .  S
O101       Zr121   2.398       .  S
O101        H138   0.967       .  S
O102       Zr121   2.396       .  S
O102       Zr657   2.404   1_545  S
Zr103       O122   2.405       .  S
Zr103       O118   2.383       .  S
Zr103       O682   2.382   1_545  S
Zr103       O110   2.390   1_455  S
Zr103       O111   2.367       .  S
Zr103       O112   2.370       .  S
Zr103      O1765   2.394   1_445  S
Zr103      O1232   2.441   1_445  S
Zr104       O117   2.483       .  S
Zr104       O110   2.403   1_455  S
Zr104       O111   2.396       .  S
Zr104       O123   2.438       .  S
Zr104       O116   2.435   1_455  S
Zr105       O131   2.493       .  S
Zr105       O654   2.412       .  S
Zr105      O1213   2.401   1_455  S
Zr105       O664   2.397       .  S
Zr105       O107   2.435       .  S
Zr105      O1233   2.438   1_455  S
Zr106       O109   2.402       .  S
Zr106      O1204   2.378       .  S
Zr106      O1766   2.397       .  S
Zr106       O132   2.438       .  S
Zr106       O133   2.437       .  S
Zr106       O660   2.436       .  S
Zr106      O1755   2.284       .  S
O107        H144   0.990       .  S
O108       Zr658   2.436       .  S
O108        H139   0.990       .  S
O108        H153   0.990   1_565  S
O109      Zr1759   2.388       .  S
O109      Zr1209   2.402       .  S
O110      Zr1762   2.398   1_545  S
O110       H1240   0.967       .  S
O111       Zr121   2.388       .  S
O112       Zr121   2.378       .  S
O112       Zr657   2.394   1_545  S
O112        H689   0.966       .  S
C113        O645   1.281       .  A
O116       H1256   0.990       .  S
O117        C119   1.292       .  A
O118        C119   1.277       .  A
C119        C167   1.479       .  S
O120       Zr121   2.438       .  S
O120        H149   0.990       .  S
Zr121       O126   2.428       .  S
Zr121       O124   2.435       .  S
Zr121       O125   2.442       .  S
O122        C127   1.281       .  A
O123        H140   0.990       .  S
O123        H155   0.990       .  S
O124        H141   0.990       .  S
O125        H145   0.990       .  S
O125        H154   0.990       .  S
O126        C127   1.280       .  A
C127        C159   1.463       .  S
O128      Zr1207   2.433   1_565  S
O128        H151   0.990   1_565  S
O128        H699   0.990       .  S
O129      Zr1209   2.435       .  S
O129        H143   0.990       .  S
O129        H150   0.990       .  S
O130       Zr655   2.390       .  S
O130        C134   1.278       .  A
O131        C134   1.294       .  A
O132        H142   0.990       .  S
O133        H698   0.990       .  S
C134        C179   1.484       .  S
H135       O1204   0.965       .  S
H136       O1214   0.965       .  S
H137        O664   0.966       .  S
H146        O685   0.990       .  S
H147        O680   0.990       .  S
H152       O1220   0.989       .  S
C157        N158   1.367       .  A
C157        N162   1.370       .  A
C157        C214   1.482       .  S
N158        C159   1.357       .  A
C159        N160   1.344       .  A
N160        C161   1.345       .  A
C161        N162   1.358       .  A
C163        N164   1.365   1_655  A
C163        N168   1.370   1_655  A
C163       C1302   1.473       .  S
N164        C165   1.352       .  A
C165        N166   1.352       .  A
N166        C167   1.353       .  A
C167        N168   1.358       .  A
C169        N170   1.360       .  A
C169        N174   1.355       .  A
C169        C217   1.474       .  S
N170        C171   1.361       .  A
C171        N172   1.356       .  A
C171        C182   1.474       .  S
N172        C173   1.353       .  A
C173        N174   1.353       .  A
C173        C201   1.467       .  S
C175        N176   1.367       .  A
C175        N180   1.368       .  A
C175        C185   1.478       .  S
N176       C1281   1.356       .  A
C177        N178   1.355       .  A
C177       N1280   1.356       .  A
N178        C179   1.355       .  A
C179       N1284   1.359       .  A
N180       C1283   1.356       .  A
C181        C182   1.404       .  A
C181        C186   1.402       .  A
C181        H188   1.084       .  S
C182        C183   1.411       .  A
C183        C184   1.402       .  A
C183        C190   1.507       .  S
C184        C185   1.406       .  A
C184        H189   1.084       .  S
C185        C186   1.414       .  A
C186       C1291   1.508       .  S
C187       C1290   1.509   1_455  S
C187        H191   1.111       .  S
C187        H192   1.110       .  S
C187        H193   1.110       .  S
C190        H194   1.110       .  S
C190        H195   1.109       .  S
C190        H196   1.111       .  S
C197        C198   1.408       .  A
C197        C202   1.403       .  A
C197        H204   1.084       .  S
C198       C1267   1.485       .  S
C198       C1303   1.421       .  A
C199       C1302   1.416       .  A
C199       C1304   1.400       .  A
C199        C206   1.510       .  S
C200        C201   1.397       .  A
C200       C1303   1.400       .  A
C200        H205   1.085       .  S
C201        C202   1.410       .  A
C202        C203   1.508       .  S
C203        H207   1.111       .  S
C203        H208   1.111       .  S
C203        H209   1.109       .  S
C206        H210   1.111       .  S
C206        H211   1.109       .  S
C206        H212   1.111       .  S
C213        C214   1.403       .  A
C213        C218   1.401       .  A
C213        H220   1.084       .  S
C214        C215   1.419       .  A
C215        C216   1.405       .  A
C215        C222   1.508       .  S
C216        C217   1.401       .  A
C216        H221   1.084       .  S
C217        C218   1.413       .  A
C218        C219   1.509       .  S
C219        H223   1.111       .  S
C219        H224   1.109       .  S
C219        H225   1.110       .  S
C222        H226   1.109       .  S
C222        H227   1.110       .  S
C222        H228   1.111       .  S
C229        C230   1.399       .  A
C229        C234   1.405       .  A
C229        H236   1.084       .  S
C230        C231   1.408       .  A
C231        C232   1.403       .  A
C231        C238   1.507       .  S
C232        C233   1.408       .  A
C232        H237   1.084       .  S
C233        C234   1.424       .  A
C234        C235   1.510       .  S
C235        H239   1.111       .  S
C235        H240   1.110       .  S
C235        H241   1.110       .  S
C238        H242   1.111       .  S
C238        H243   1.110       .  S
C238        H244   1.111       .  S
C245        C246   1.411       .  A
C245        C250   1.401       .  A
C245        H252   1.083       .  S
C246        C247   1.427       .  A
C247        C248   1.403       .  A
C247        C254   1.510       .  S
C248        C249   1.395       .  A
C248        H253   1.085       .  S
C249        C250   1.405       .  A
C250        C251   1.507       .  S
C251        H255   1.111       .  S
C251        H256   1.108       .  S
C251        H257   1.111       .  S
C254        H258   1.110       .  S
C254        H259   1.110       .  S
C254        H260   1.111       .  S
C261        C262   1.403       .  A
C261        C266   1.403       .  A
C261        H268   1.084       .  S
C262        C263   1.421       .  A
C263        C264   1.405       .  A
C263        C270   1.509       .  S
C264        C265   1.401       .  A
C264        H269   1.084       .  S
C265        C266   1.414       .  A
C266        C267   1.507       .  S
C267        H271   1.111       .  S
C267        H272   1.110       .  S
C267        H273   1.108       .  S
C270        H274   1.110       .  S
C270        H275   1.110       .  S
C270        H276   1.111       .  S
C277        N278   1.365       .  A
C277        N282   1.366       .  A
C277        C538   1.468       .  S
N278        C279   1.354       .  A
C279        N280   1.356       .  A
C279        C344   1.475       .  S
N280        C281   1.356       .  A
C281        N282   1.356       .  A
C281        C391   1.477       .  S
C283        N284   1.367       .  A
C283        N288   1.369       .  A
C283        C522   1.475       .  S
N284        C285   1.353       .  A
C285        N286   1.353       .  A
C285        C329   1.479       .  S
N286        C287   1.355       .  A
C287        N288   1.356       .  A
C287        C390   1.477       .  S
C289        N290   1.360       .  A
C289        N294   1.357       .  A
C289        C506   1.479       .  S
N290        C291   1.362       .  A
C291        N292   1.355       .  A
C291        C541   1.483       .  S
N292        C293   1.352       .  A
C293        N294   1.353       .  A
C293        C525   1.469       .  S
C295        N296   1.366       .  A
C295        N300   1.368       .  A
C295        C509   1.474       .  S
N296        C297   1.356       .  A
C297        N298   1.343       .  A
C297        C337   1.462       .  S
N298        C299   1.345       .  A
C299        N300   1.358       .  A
C299        C389   1.463       .  S
Zr301       O303   2.399       .  S
Zr301       O856   2.399   1_545  S
Zr301       O307   2.385       .  S
Zr301       O310   2.373       .  S
Zr301      O1967   2.390   1_445  S
Zr301       O312   2.389   1_455  S
Zr301      O1406   2.435   1_455  S
Zr301       O309   2.260       .  S
O302      Zr1405   2.441       .  S
O302        H358   0.990   1_545  S
O302        H918   0.990       .  S
O303        C323   1.280       .  A
O304       Zr853   2.394       .  S
O304        C325   1.277       .  A
O305        C324   1.293       .  A
O306       Zr314   2.485       .  S
O306        C325   1.292       .  A
O307        C324   1.277       .  A
O308       Zr316   2.430       .  S
O308        C323   1.279       .  A
O309       Zr866   2.301   1_545  S
O309       Zr316   2.289       .  S
O310       Zr316   2.380       .  S
O310        H345   0.965       .  S
O311      Zr1957   2.392       .  S
O311      Zr1418   2.407       .  S
O311        H348   0.966       .  S
O312      Zr1711   2.400   1_545  S
Zr313      O1436   2.397   1_445  S
Zr313       O340   2.383       .  S
Zr313       O880   2.378   1_545  S
Zr313       O319   2.388       .  S
Zr313       O320   2.390       .  S
Zr313       O873   2.364   1_445  S
Zr313       O322   2.367   1_455  S
Zr313       O338   2.441       .  S
Zr314      O1415   2.403   1_455  S
Zr314       O596   2.397       .  S
Zr314      O1161   2.439   1_455  S
Zr314       O326   2.437       .  S
Zr314       O861   2.300       .  S
Zr315       O341   2.481   1_554  S
Zr315       O319   2.403   1_554  S
Zr315       O322   2.391   1_454  S
Zr315       O317   2.437   1_454  S
Zr316       O342   2.439       .  S
Zr316       O318   2.436       .  S
O317        H354   0.990   1_556  S
O318        H349   0.990       .  S
O318        H363   0.990       .  S
O320       Zr590   2.405   1_545  S
O320        H346   0.966       .  S
O321       Zr865   2.367   1_655  S
O321      Zr1435   2.382       .  S
O322      Zr1987   2.385   1_545  S
O322       H1451   0.967       .  S
C323        C437   1.464       .  S
C324        C441   1.478       .  S
C325        C453   1.482       .  S
O326        H362   0.990       .  S
O327        C329   1.295       .  A
O328       Zr865   2.376       .  S
O328        C329   1.276       .  A
O330        H359   0.990       .  S
Zr331       O336   2.430   1_554  S
Zr331      O1692   2.398       .  S
Zr331      O1425   2.375   1_554  S
Zr331      O1978   2.384   1_554  S
Zr331       O334   2.439   1_554  S
Zr331       O887   2.435       .  S
O332      Zr1417   2.407   1_565  S
O332        C889   1.283       .  A
O333      Zr1142   2.435   1_556  S
O333        H350   0.990   1_556  S
O334        H351   0.990       .  S
O335       Zr883   2.437       .  S
O335        H355   0.990   1_565  S
O335        H364   0.990   1_566  S
O336        C337   1.281       .  A
C337        O884   1.282       .  A
O338        H357   0.990       .  S
O338        H361   0.990       .  S
O339        H353   0.990       .  S
O339        H360   0.990       .  S
O340        C344   1.276       .  A
O341        C344   1.292       .  A
O342        H352   0.989       .  S
O343        H356   0.990       .  S
H347       O1426   0.967       .  S
H366        O854   0.990       .  S
Zr367      O1473   2.401   1_445  S
Zr367       O370   2.379       .  S
Zr367       O925   2.376   1_545  S
Zr367       O375   2.371   1_455  S
Zr367       O928   2.371   1_445  S
Zr367       O377   2.391       .  S
Zr367       O378   2.389       .  S
Zr367       O368   2.439       .  S
O368        H424   0.990       .  S
O368        H432   0.990       .  S
O369      Zr1471   2.398   1_565  S
O369        C941   1.280       .  A
O370        C391   1.276       .  A
O371       Zr381   2.482       .  S
O371        C390   1.292       .  A
O372       Zr380   2.491       .  S
O372        C391   1.294       .  A
O373       Zr919   2.378       .  S
O373        C390   1.275       .  A
O374       Zr382   2.431       .  S
O374        C389   1.280       .  A
O375       Zr380   2.395   1_655  S
O375      Zr2038   2.383   1_545  S
O376       Zr919   2.372   1_655  S
O376       Zr381   2.398   1_655  S
O376      Zr1486   2.377       .  S
O376       H1515   0.965       .  S
O377       Zr380   2.404       .  S
O377       Zr397   2.394       .  S
O377        H414   0.966       .  S
O378       Zr933   2.404   1_545  S
O378       Zr397   2.400       .  S
Zr379       O398   2.417       .  S
Zr379       O958   2.391   1_545  S
Zr379       O394   2.384       .  S
Zr379      O2041   2.387   1_445  S
Zr379       O386   2.392   1_455  S
Zr379       O388   2.369       .  S
Zr379      O1508   2.437   1_445  S
Zr379       O387   2.261       .  S
Zr380       O393   2.494       .  S
Zr380       O386   2.402   1_455  S
Zr380       O399   2.438       .  S
Zr380       O392   2.437   1_455  S
Zr380       O387   2.298       .  S
Zr381       O407   2.488       .  S
Zr381       O930   2.409       .  S
Zr381      O1489   2.401   1_455  S
Zr381       O940   2.394       .  S
Zr381       O383   2.437       .  S
Zr381      O1509   2.436   1_455  S
Zr382      O2031   2.384       .  S
Zr382      O1480   2.380       .  S
Zr382       O385   2.403       .  S
Zr382      O2042   2.396       .  S
Zr382       O408   2.434       .  S
Zr382       O409   2.436       .  S
Zr382       O936   2.436       .  S
O383        H420   0.990       .  S
O384       Zr934   2.435       .  S
O384        H415   0.990       .  S
O384        H429   0.990   1_565  S
O385      Zr2035   2.384       .  S
O385      Zr1485   2.399       .  S
O386      Zr2038   2.398   1_545  S
O386       H1516   0.965       .  S
O387       Zr397   2.286       .  S
O388       Zr933   2.396   1_545  S
O388       Zr397   2.380       .  S
O388        H965   0.966       .  S
C389        O921   1.280       .  A
O392       H1532   0.990       .  S
O393        C395   1.295       .  A
O394        C395   1.278       .  A
C395        C443   1.483       .  S
O396       Zr397   2.440       .  S
O396        H425   0.990       .  S
Zr397       O402   2.431       .  S
Zr397       O400   2.435       .  S
Zr397       O401   2.443       .  S
O398        C403   1.285       .  A
O399        H416   0.991       .  S
O399        H431   0.990       .  S
O400        H417   0.990       .  S
O401        H421   0.990       .  S
O401        H430   0.990       .  S
O402        C403   1.280       .  A
C403        C435   1.469       .  S
O404      Zr1483   2.442       .  S
O404        H975   0.990   1_545  S
O404        H427   0.990       .  S
O405      Zr1485   2.437       .  S
O405        H419   0.990       .  S
O405        H426   0.990       .  S
O406       Zr931   2.387       .  S
O406        C410   1.278       .  A
O407        C410   1.294       .  A
O408        H418   0.990       .  S
O409        H974   0.990       .  S
C410        C455   1.478       .  S
H411       O1480   0.966       .  S
H412       O1490   0.966       .  S
H413        O940   0.966       .  S
H422        O961   0.990       .  S
H423        O956   0.990       .  S
H428       O1496   0.989       .  S
C433        N434   1.370       .  A
C433        N438   1.370       .  A
C433        C490   1.490       .  S
N434        C435   1.360       .  A
C435        N436   1.342       .  A
N436        C437   1.344       .  A
C437        N438   1.360       .  A
C439        N440   1.366       .  A
C439        N444   1.372       .  A
C439       C1578   1.478       .  S
N440        C441   1.353   1_655  A
C441        N442   1.353       .  A
N442        C443   1.354       .  A
C443        N444   1.358   1_455  A
C445        N446   1.361       .  A
C445        N450   1.359       .  A
C445        C493   1.483       .  S
N446        C447   1.361       .  A
C447        N448   1.355       .  A
C447        C458   1.472       .  S
N448        C449   1.354       .  A
C449        N450   1.358       .  A
C449        C477   1.478       .  S
C451        N452   1.366       .  A
C451        N456   1.371       .  A
C451        C461   1.488       .  S
N452       C1557   1.355       .  A
C453       N1556   1.359       .  A
C453        N454   1.356       .  A
N454        C455   1.355       .  A
C455       N1560   1.354       .  A
N456       C1559   1.357       .  A
C457        C458   1.402       .  A
C457        C462   1.405       .  A
C457        H464   1.084       .  S
C458        C459   1.408       .  A
C459        C460   1.401       .  A
C459        C466   1.507       .  S
C460        C461   1.408       .  A
C460        H465   1.083       .  S
C461        C462   1.421       .  A
C462       C1567   1.509       .  S
C463       C1566   1.507   1_455  S
C463        H467   1.111       .  S
C463        H468   1.110       .  S
C463        H469   1.109       .  S
C466        H470   1.110       .  S
C466        H471   1.110       .  S
C466        H472   1.111       .  S
C473        C474   1.402       .  A
C473        C478   1.404       .  A
C473        H480   1.084       .  S
C474       C1543   1.479       .  S
C474       C1579   1.418       .  A
C475       C1578   1.419       .  A
C475       C1580   1.399       .  A
C475        C482   1.509       .  S
C476       C1579   1.402       .  A
C476        C477   1.401       .  A
C476        H481   1.084       .  S
C477        C478   1.416       .  A
C478        C479   1.508       .  S
C479        H483   1.111       .  S
C479        H484   1.110       .  S
C479        H485   1.109       .  S
C482        H486   1.110       .  S
C482        H487   1.109       .  S
C482        H488   1.111       .  S
C489        C490   1.405       .  A
C489        C494   1.405       .  A
C489        H496   1.084       .  S
C490        C491   1.419       .  A
C491        C492   1.409       .  A
C491        C498   1.508       .  S
C492        C493   1.403       .  A
C492        H497   1.084       .  S
C493        C494   1.415       .  A
C494        C495   1.508       .  S
C495        H499   1.111       .  S
C495        H500   1.109       .  S
C495        H501   1.111       .  S
C498        H502   1.109       .  S
C498        H503   1.110       .  S
C498        H504   1.111       .  S
C505        C506   1.404       .  A
C505        C510   1.401       .  A
C505        H512   1.084       .  S
C506        C507   1.415       .  A
C507        C508   1.405       .  A
C507        C514   1.507       .  S
C508        C509   1.403       .  A
C508        H513   1.084       .  S
C509        C510   1.413       .  A
C510        C511   1.509       .  S
C511        H515   1.111       .  S
C511        H516   1.111       .  S
C511        H517   1.109       .  S
C514        H518   1.110       .  S
C514        H519   1.110       .  S
C514        H520   1.111       .  S
C521        C522   1.405       .  A
C521        C526   1.402       .  A
C521        H528   1.084       .  S
C522        C523   1.415       .  A
C523        C524   1.400       .  A
C523        C530   1.509       .  S
C524        C525   1.400       .  A
C524        H529   1.084       .  S
C525        C526   1.412       .  A
C526        C527   1.508       .  S
C527        H531   1.111       .  S
C527        H532   1.111       .  S
C527        H533   1.109       .  S
C530        H534   1.111       .  S
C530        H535   1.109       .  S
C530        H536   1.111       .  S
C537        C538   1.396       .  A
C537        C542   1.400       .  A
C537        H544   1.085       .  S
C538        C539   1.413       .  A
C539        C540   1.402       .  A
C539        C546   1.508       .  S
C540        C541   1.405       .  A
C540        H545   1.084       .  S
C541        C542   1.422       .  A
C542        C543   1.509       .  S
C543        H547   1.111       .  S
C543        H548   1.110       .  S
C543        H549   1.109       .  S
C546        H550   1.111       .  S
C546        H551   1.109       .  S
C546        H552   1.111       .  S
C553        N554   1.365       .  A
C553        N558   1.372       .  A
C553        C814   1.488       .  S
N554        C555   1.353       .  A
C555        N556   1.355       .  A
C555        C620   1.477       .  S
N556        C557   1.355       .  A
C557        N558   1.360       .  A
C557        C667   1.483       .  S
C559        N560   1.367       .  A
C559        N564   1.370       .  A
C559        C798   1.475       .  S
N560        C561   1.355       .  A
C561        N562   1.353       .  A
C561        C605   1.476       .  S
N562        C563   1.354       .  A
C563        N564   1.358       .  A
C563        C666   1.482       .  S
C565        N566   1.361       .  A
C565        N570   1.359       .  A
C565        C782   1.474       .  S
N566        C567   1.360       .  A
C567        N568   1.353       .  A
C567        C817   1.469       .  S
N568        C569   1.353       .  A
C569        N570   1.358       .  A
C569        C801   1.482       .  S
C571        N572   1.370       .  A
C571        N576   1.370       .  A
C571        C785   1.495       .  S
N572        C573   1.359       .  A
C573        N574   1.342       .  A
C573        C613   1.466       .  S
N574        C575   1.343       .  A
C575        N576   1.358       .  A
C575        C665   1.461       .  S
Zr577       O579   2.399       .  S
Zr577       O583   2.384       .  S
Zr577       O586   2.370       .  S
Zr577      O1139   2.387   1_455  S
Zr577       O588   2.390   1_455  S
Zr577      O1682   2.443   1_455  S
Zr577       O585   2.263       .  S
O578      Zr1681   2.433       .  S
O578        H634   0.988       .  S
O579        C599   1.280       .  A
O580        C601   1.278       .  A
O581       Zr867   2.477   1_554  S
O581        C600   1.292       .  A
O582       Zr590   2.485   1_554  S
O582        C601   1.293       .  A
O583        C600   1.277       .  A
O584       Zr592   2.440       .  S
O584        C599   1.281       .  A
O585       Zr592   2.289       .  S
O586       Zr867   2.397   1_554  S
O586       Zr592   2.373       .  S
O586        H621   0.964       .  S
O587      Zr1129   2.390   1_565  S
O587      Zr1694   2.403       .  S
O587       Zr883   2.397   1_554  S
O587        H624   0.966       .  S
O588       Zr867   2.411   1_654  S
O588      Zr1435   2.403   1_554  S
Zr589      O1712   2.411   1_455  S
Zr589       O616   2.382       .  S
Zr589       O595   2.390       .  S
Zr589       O596   2.391       .  S
Zr589       O598   2.371   1_455  S
Zr589       O614   2.437       .  S
Zr590       O879   2.481       .  S
Zr590      O1691   2.403   1_456  S
Zr590       O873   2.394   1_455  S
Zr590      O1989   2.435   1_455  S
Zr590       O602   2.435   1_556  S
Zr591       O857   2.489       .  S
Zr591       O617   2.489       .  S
Zr591       O862   2.399       .  S
Zr591       O864   2.405   1_455  S
Zr591       O595   2.404       .  S
Zr591       O598   2.395   1_455  S
Zr591       O593   2.435   1_455  S
Zr591       O891   2.437       .  S
Zr592       O871   2.397   1_554  S
Zr592       O872   2.401   1_554  S
Zr592       O618   2.439       .  S
Zr592       O895   2.437   1_554  S
Zr592       O594   2.435       .  S
O593        H630   0.990       .  S
O594        H625   0.990       .  S
O594        H639   0.990       .  S
O595       Zr868   2.401       .  S
O596       Zr868   2.401       .  S
O596        H622   0.965       .  S
O597       Zr866   2.394   1_655  S
O597      Zr1711   2.382       .  S
O598      Zr1159   2.379       .  S
O598       H1727   0.966       .  S
C599        C713   1.467       .  S
C600        C717   1.474       .  S
C601        C729   1.478       .  S
O602        H638   0.990   1_554  S
O603       Zr866   2.481       .  S
O603        C605   1.292       .  A
O604        C605   1.278       .  A
O606       Zr883   2.438   1_554  S
O606        H635   0.990       .  S
Zr607       O612   2.429       .  S
Zr607       O863   2.396       .  S
Zr607      O1416   2.401   1_565  S
Zr607      O1701   2.385       .  S
Zr607      O1150   2.378   1_565  S
Zr607       O882   2.438       .  S
Zr607       O610   2.436       .  S
O608      Zr1693   2.400       .  S
O609      Zr1970   2.437       .  S
O609        H626   0.990       .  S
O609        H917   0.990       .  S
O610        H627   0.990       .  S
O611        H631   0.991       .  S
O611        H640   0.990       .  S
O612        C613   1.280       .  A
O614        H633   0.990       .  S
O614        H637   0.990       .  S
O615       Zr867   2.437   1_554  S
O615        H629   0.990       .  S
O615        H636   0.990       .  S
O616        C620   1.276       .  A
O617        C620   1.295       .  A
O618        H628   0.990       .  S
O619       Zr868   2.437       .  S
O619        H632   0.990       .  S
H623       O1702   0.966       .  S
H641        O885   0.990   1_554  S
Zr643      O1749   2.396   1_455  S
Zr643       O646   2.404       .  S
Zr643       O653   2.387       .  S
Zr643       O654   2.388       .  S
Zr643       O644   2.433       .  S
Zr643       O651   2.261   1_455  S
O644        H700   0.990       .  S
O644        H708   0.990       .  S
O645      Zr1747   2.401       .  S
O646        C667   1.278       .  A
O647       Zr657   2.490       .  S
O647        C666   1.294       .  A
O648       Zr656   2.483       .  S
O648        C667   1.291       .  A
O649        C666   1.277       .  A
O650       Zr658   2.428       .  S
O650        C665   1.279       .  A
O651       Zr656   2.302   1_655  S
O651      Zr1210   2.288       .  S
O652       Zr657   2.390   1_655  S
O652      Zr1762   2.373       .  S
O652       H1791   0.965       .  S
O653       Zr656   2.408       .  S
O653       Zr673   2.393       .  S
O653        H690   0.966       .  S
O654       Zr673   2.398       .  S
Zr655       O674   2.417       .  S
Zr655       O670   2.381       .  S
Zr655      O1213   2.390   1_455  S
Zr655       O662   2.395   1_455  S
Zr655       O663   2.368       .  S
Zr655       O664   2.371       .  S
Zr655      O1784   2.441   1_455  S
Zr656       O669   2.480       .  S
Zr656       O662   2.406   1_455  S
Zr656       O663   2.395       .  S
Zr656       O675   2.439       .  S
Zr656       O668   2.436   1_455  S
Zr657       O683   2.485       .  S
Zr657      O1765   2.406   1_455  S
Zr657       O659   2.434       .  S
Zr657      O1785   2.438   1_455  S
Zr658      O1756   2.380       .  S
Zr658       O661   2.399       .  S
Zr658      O1214   2.395   1_565  S
Zr658       O684   2.441       .  S
Zr658       O685   2.439       .  S
Zr658      O1203   2.284   1_565  S
O659        H696   0.990       .  S
O660        H691   0.990       .  S
O660        H705   0.990       .  S
O661      Zr1207   2.391   1_565  S
O661      Zr1761   2.401       .  S
O662      Zr1210   2.402       .  S
O662       H1792   0.967       .  S
O663       Zr673   2.382       .  S
O664       Zr673   2.388       .  S
O668       H1808   0.990       .  S
O669        C671   1.291       .  A
O670        C671   1.277       .  A
C671        C719   1.476       .  S
O672       Zr673   2.438       .  S
O672        H701   0.990       .  S
Zr673       O678   2.425       .  S
Zr673       O676   2.435       .  S
Zr673       O677   2.438       .  S
O674        C679   1.285       .  A
O675        H692   0.990       .  S
O675        H707   0.990       .  S
O676        H693   0.990       .  S
O677        H697   0.990       .  S
O677        H706   0.990       .  S
O678        C679   1.279       .  A
C679        C711   1.468       .  S
O680      Zr1759   2.433       .  S
O680        H703   0.990       .  S
O681      Zr1761   2.435       .  S
O681        H695   0.990       .  S
O681        H702   0.990       .  S
O682        C686   1.276       .  A
O683        C686   1.293       .  A
O684        H694   0.990       .  S
C686        C731   1.475       .  S
H687       O1756   0.965       .  S
H688       O1766   0.966       .  S
H704       O1772   0.990       .  S
C709        N710   1.370       .  A
C709        N714   1.371       .  A
C709        C766   1.488       .  S
N710        C711   1.361       .  A
C711        N712   1.343       .  A
N712        C713   1.344       .  A
C713        N714   1.358       .  A
C715        N716   1.367       .  A
C715        N720   1.369       .  A
C715       C1854   1.473       .  S
N716        C717   1.353   1_655  A
C717        N718   1.352       .  A
N718        C719   1.352       .  A
C719        N720   1.356   1_455  A
C721        N722   1.361       .  A
C721        N726   1.361       .  A
C721        C769   1.487       .  S
N722        C723   1.361       .  A
C723        N724   1.355       .  A
C723        C734   1.475       .  S
N724        C725   1.354       .  A
C725        N726   1.360       .  A
C725        C753   1.485       .  S
C727        N728   1.368       .  A
C727        N732   1.369       .  A
C727        C737   1.485       .  S
N728       C1833   1.357       .  A
C729       N1832   1.356       .  A
C729        N730   1.356       .  A
N730        C731   1.356       .  A
C731       N1836   1.354       .  A
N732       C1835   1.357       .  A
C733        C734   1.403       .  A
C733        C738   1.404       .  A
C733        H740   1.084       .  S
C734        C735   1.410       .  A
C735        C736   1.403       .  A
C735        C742   1.507       .  S
C736        C737   1.408       .  A
C736        H741   1.084       .  S
C737        C738   1.417       .  A
C738       C1843   1.508       .  S
C739       C1842   1.508   1_455  S
C739        H743   1.111       .  S
C739        H744   1.110       .  S
C739        H745   1.109       .  S
C742        H746   1.110       .  S
C742        H747   1.110       .  S
C742        H748   1.111       .  S
C749        C750   1.400       .  A
C749        C754   1.404       .  A
C749        H756   1.084       .  S
C750       C1819   1.477       .  S
C750       C1855   1.414       .  A
C751       C1854   1.416       .  A
C751       C1856   1.398       .  A
C751        C758   1.509       .  S
C752       C1855   1.403       .  A
C752        C753   1.404       .  A
C752        H757   1.083       .  S
C753        C754   1.420       .  A
C754        C755   1.508       .  S
C755        H759   1.111       .  S
C755        H760   1.110       .  S
C755        H761   1.109       .  S
C758        H762   1.111       .  S
C758        H763   1.109       .  S
C758        H764   1.111       .  S
C765        C766   1.403       .  A
C765        C770   1.403       .  A
C765        H772   1.084       .  S
C766        C767   1.417       .  A
C767        C768   1.411       .  A
C767        C774   1.507       .  S
C768        C769   1.406       .  A
C768        H773   1.084       .  S
C769        C770   1.415       .  A
C770        C771   1.507       .  S
C771        H775   1.111       .  S
C771        H776   1.108       .  S
C771        H777   1.110       .  S
C774        H778   1.109       .  S
C774        H779   1.110       .  S
C774        H780   1.111       .  S
C781        C782   1.399       .  A
C781        C786   1.404       .  A
C781        H788   1.084       .  S
C782        C783   1.408       .  A
C783        C784   1.405       .  A
C783        C790   1.506       .  S
C784        C785   1.411       .  A
C784        H789   1.084       .  S
C785        C786   1.422       .  A
C786        C787   1.508       .  S
C787        H791   1.111       .  S
C787        H792   1.110       .  S
C787        H793   1.110       .  S
C790        H794   1.111       .  S
C790        H795   1.108       .  S
C790        H796   1.111       .  S
C797        C798   1.399       .  A
C797        C802   1.402       .  A
C797        H804   1.084       .  S
C798        C799   1.415       .  A
C799        C800   1.404       .  A
C799        C806   1.508       .  S
C800        C801   1.405       .  A
C800        H805   1.084       .  S
C801        C802   1.419       .  A
C802        C803   1.509       .  S
C803        H807   1.111       .  S
C803        H808   1.109       .  S
C803        H809   1.110       .  S
C806        H810   1.109       .  S
C806        H811   1.110       .  S
C806        H812   1.111       .  S
C813        C814   1.409       .  A
C813        C818   1.403       .  A
C813        H820   1.083       .  S
C814        C815   1.422       .  A
C815        C816   1.401       .  A
C815        C822   1.510       .  S
C816        C817   1.398       .  A
C816        H821   1.085       .  S
C817        C818   1.408       .  A
C818        C819   1.506       .  S
C819        H823   1.111       .  S
C819        H824   1.108       .  S
C819        H825   1.111       .  S
C822        H826   1.109       .  S
C822        H827   1.110       .  S
C822        H828   1.111       .  S
C829        N830   1.365       .  A
C829        N834   1.368       .  A
C829       C1090   1.476       .  S
N830        C831   1.355       .  A
C831        N832   1.356       .  A
C831        C896   1.477       .  S
N832        C833   1.355       .  A
C833        N834   1.357       .  A
C833        C943   1.481       .  S
C835        N836   1.365       .  A
C835        N840   1.368       .  A
C835       C1074   1.481       .  S
N836        C837   1.352       .  A
C837        N838   1.352       .  A
C837        C881   1.474       .  S
N838        C839   1.353       .  A
C839        N840   1.353       .  A
C839        C942   1.473       .  S
C841        N842   1.360       .  A
C841        N846   1.354       .  A
C841       C1058   1.472       .  S
N842        C843   1.362       .  A
C843        N844   1.355       .  A
C843       C1093   1.479       .  S
N844        C845   1.353       .  A
C845        N846   1.352       .  A
C845       C1077   1.460       .  S
C847        N848   1.367       .  A
C847        N852   1.370       .  A
C847       C1061   1.485       .  S
N848        C849   1.356       .  A
C849        N850   1.342       .  A
C849        C889   1.463       .  S
N850        C851   1.344       .  A
C851        N852   1.359       .  A
C851        C941   1.464       .  S
Zr853       O855   2.400       .  S
Zr853       O859   2.385       .  S
Zr853       O862   2.370       .  S
Zr853      O1415   2.392   1_455  S
Zr853       O864   2.393   1_455  S
Zr853      O1958   2.433   1_455  S
Zr853       O861   2.265       .  S
O854      Zr1957   2.431       .  S
O854        H910   0.989       .  S
O855        C875   1.280       .  A
O856        C877   1.279       .  A
O857        C876   1.294       .  A
O858       Zr866   2.483       .  S
O858        C877   1.291       .  A
O859        C876   1.277       .  A
O860       Zr868   2.440       .  S
O860        C875   1.281       .  A
O861       Zr868   2.292       .  S
O862       Zr868   2.373       .  S
O862        H897   0.965       .  S
O863      Zr1405   2.387   1_565  S
O863      Zr1970   2.406       .  S
O863        H900   0.966       .  S
O864      Zr1159   2.400       .  S
Zr865      O1988   2.402   1_455  S
Zr865       O892   2.380       .  S
Zr865       O871   2.386       .  S
Zr865       O872   2.392       .  S
Zr865       O874   2.369   1_455  S
Zr865       O890   2.438       .  S
Zr866      O1967   2.407   1_455  S
Zr866      O1713   2.439       .  S
Zr866       O878   2.436       .  S
Zr867       O893   2.487       .  S
Zr867       O871   2.395       .  S
Zr867       O874   2.394   1_455  S
Zr867       O869   2.435   1_455  S
Zr868       O894   2.439       .  S
Zr868       O870   2.436       .  S
O869        H906   0.990       .  S
O870        H901   0.990       .  S
O870        H915   0.990       .  S
O872        H898   0.966       .  S
O873      Zr1987   2.380       .  S
O874      Zr1435   2.383       .  S
O874       H2003   0.966       .  S
C875        C989   1.468       .  S
C876        C993   1.480       .  S
C877       C1005   1.483       .  S
O878        H914   0.990       .  S
O879        C881   1.293       .  A
O880        C881   1.276       .  A
O882        H911   0.990       .  S
Zr883       O888   2.429       .  S
Zr883      O1140   2.402   1_566  S
Zr883      O1977   2.380       .  S
Zr883      O1426   2.381   1_565  S
Zr883       O886   2.438       .  S
O884      Zr1969   2.402       .  S
O885      Zr1694   2.436   1_556  S
O885        H902   0.990   1_556  S
O886        H903   0.990       .  S
O887        H907   0.990   1_554  S
O887        H916   0.990   1_554  S
O888        C889   1.280       .  A
O890        H909   0.990       .  S
O890        H913   0.990       .  S
O891        H905   0.990       .  S
O891        H912   0.990       .  S
O892        C896   1.276       .  A
O893        C896   1.294       .  A
O894        H904   0.990       .  S
O895        H908   0.990       .  S
H899       O1978   0.967       .  S
Zr919      O2025   2.405   1_455  S
Zr919       O922   2.393       .  S
Zr919       O929   2.391       .  S
Zr919       O930   2.393       .  S
Zr919       O920   2.443       .  S
Zr919       O927   2.261   1_455  S
O920        H976   0.990       .  S
O920        H984   0.990       .  S
O921      Zr2023   2.396       .  S
O922        C943   1.278       .  A
O923       Zr933   2.483       .  S
O923        C942   1.293       .  A
O924       Zr932   2.486       .  S
O924        C943   1.293       .  A
O925        C942   1.276       .  A
O926       Zr934   2.434       .  S
O926        C941   1.280       .  A
O927       Zr932   2.302   1_655  S
O927      Zr1486   2.287       .  S
O928       Zr933   2.392   1_655  S
O928      Zr2038   2.375       .  S
O928       H2067   0.966       .  S
O929       Zr932   2.407       .  S
O929       Zr949   2.404       .  S
O929        H966   0.967       .  S
O930       Zr949   2.405       .  S
Zr931       O950   2.404       .  S
Zr931       O946   2.386       .  S
Zr931      O1489   2.388   1_455  S
Zr931       O938   2.391   1_455  S
Zr931       O939   2.368       .  S
Zr931       O940   2.372       .  S
Zr931      O2060   2.434   1_455  S
Zr932       O945   2.491       .  S
Zr932       O938   2.401   1_455  S
Zr932       O939   2.394       .  S
Zr932       O951   2.439       .  S
Zr932       O944   2.435   1_455  S
Zr933       O959   2.480       .  S
Zr933      O2041   2.399   1_455  S
Zr933       O935   2.434       .  S
Zr933      O2061   2.439   1_455  S
Zr934      O2032   2.379       .  S
Zr934       O937   2.402       .  S
Zr934      O1490   2.401   1_565  S
Zr934       O960   2.440       .  S
Zr934       O961   2.437       .  S
Zr934      O1479   2.291   1_565  S
O935        H972   0.990       .  S
O936        H967   0.990       .  S
O936        H981   0.990       .  S
O937      Zr1483   2.393   1_565  S
O937      Zr2037   2.406       .  S
O938      Zr1486   2.396       .  S
O938       H2068   0.965       .  S
O939       Zr949   2.382       .  S
O940       Zr949   2.380       .  S
O944       H2084   0.990       .  S
O945        C947   1.294       .  A
O946        C947   1.278       .  A
C947        C995   1.482       .  S
O948       Zr949   2.438       .  S
O948        H977   0.990       .  S
Zr949       O954   2.437       .  S
Zr949       O952   2.435       .  S
Zr949       O953   2.441       .  S
O950        C955   1.282       .  A
O951        H968   0.990       .  S
O951        H983   0.990       .  S
O952        H969   0.990       .  S
O953        H973   0.990       .  S
O953        H982   0.990       .  S
O954        C955   1.282       .  A
C955        C987   1.465       .  S
O956      Zr2035   2.435       .  S
O956        H979   0.990       .  S
O957      Zr2037   2.437       .  S
O957        H971   0.990       .  S
O957        H978   0.990       .  S
O958        C962   1.279       .  A
O959        C962   1.292       .  A
O960        H970   0.991       .  S
C962       C1007   1.476       .  S
H963       O2032   0.965       .  S
H964       O2042   0.966       .  S
H980       O2048   0.990       .  S
C985        N986   1.368       .  A
C985        N990   1.370       .  A
C985       C1042   1.481       .  S
N986        C987   1.357       .  A
C987        N988   1.344       .  A
N988        C989   1.345       .  A
C989        N990   1.358       .  A
C991        N992   1.368       .  A
C991        N996   1.371       .  A
C991       C2130   1.483       .  S
N992        C993   1.354   1_655  A
C993        N994   1.353       .  A
N994        C995   1.354       .  A
C995        N996   1.358   1_455  A
C997        N998   1.359       .  A
C997       N1002   1.357       .  A
C997       C1045   1.476       .  S
N998        C999   1.359       .  A
C999       N1000   1.355       .  A
C999       C1010   1.469       .  S
N1000      C1001   1.354       .  A
C1001      N1002   1.356       .  A
C1001      C1029   1.473       .  S
C1003      N1004   1.368       .  A
C1003      N1008   1.366       .  A
C1003      C1013   1.481       .  S
N1004      C2109   1.357       .  A
C1005      N2108   1.361       .  A
C1005      N1006   1.355       .  A
N1006      C1007   1.354       .  A
C1007      N2112   1.355       .  A
N1008      C2111   1.353       .  A
C1009      C1010   1.402       .  A
C1009      C1014   1.403       .  A
C1009      H1016   1.084       .  S
C1010      C1011   1.409       .  A
C1011      C1012   1.401       .  A
C1011      C1018   1.508       .  S
C1012      C1013   1.408       .  A
C1012      H1017   1.084       .  S
C1013      C1014   1.416       .  A
C1014      C2119   1.508       .  S
C1015      C2118   1.507   1_455  S
C1015      H1019   1.111       .  S
C1015      H1020   1.110       .  S
C1015      H1021   1.109       .  S
C1018      H1022   1.110       .  S
C1018      H1023   1.110       .  S
C1018      H1024   1.111       .  S
C1025      C1026   1.402       .  A
C1025      C1030   1.402       .  A
C1025      H1032   1.084       .  S
C1026      C2095   1.475       .  S
C1026      C2131   1.417       .  A
C1027      C2130   1.420       .  A
C1027      C2132   1.403       .  A
C1027      C1034   1.509       .  S
C1028      C2131   1.401       .  A
C1028      C1029   1.401       .  A
C1028      H1033   1.084       .  S
C1029      C1030   1.414       .  A
C1030      C1031   1.508       .  S
C1031      H1035   1.111       .  S
C1031      H1036   1.110       .  S
C1031      H1037   1.109       .  S
C1034      H1038   1.110       .  S
C1034      H1039   1.109       .  S
C1034      H1040   1.111       .  S
C1041      C1042   1.402       .  A
C1041      C1046   1.400       .  A
C1041      H1048   1.084       .  S
C1042      C1043   1.418       .  A
C1043      C1044   1.406       .  A
C1043      C1050   1.508       .  S
C1044      C1045   1.403       .  A
C1044      H1049   1.084       .  S
C1045      C1046   1.414       .  A
C1046      C1047   1.508       .  S
C1047      H1051   1.111       .  S
C1047      H1052   1.108       .  S
C1047      H1053   1.110       .  S
C1050      H1054   1.109       .  S
C1050      H1055   1.110       .  S
C1050      H1056   1.111       .  S
C1057      C1058   1.401       .  A
C1057      C1062   1.403       .  A
C1057      H1064   1.085       .  S
C1058      C1059   1.410       .  A
C1059      C1060   1.403       .  A
C1059      C1066   1.507       .  S
C1060      C1061   1.406       .  A
C1060      H1065   1.084       .  S
C1061      C1062   1.420       .  A
C1062      C1063   1.509       .  S
C1063      H1067   1.111       .  S
C1063      H1068   1.110       .  S
C1063      H1069   1.109       .  S
C1066      H1070   1.111       .  S
C1066      H1071   1.110       .  S
C1066      H1072   1.111       .  S
C1073      C1074   1.407       .  A
C1073      C1078   1.398       .  A
C1073      H1080   1.084       .  S
C1074      C1075   1.422       .  A
C1075      C1076   1.399       .  A
C1075      C1082   1.510       .  S
C1076      C1077   1.396       .  A
C1076      H1081   1.085       .  S
C1077      C1078   1.406       .  A
C1078      C1079   1.506       .  S
C1079      H1083   1.111       .  S
C1079      H1084   1.105       .  S
C1079      H1085   1.111       .  S
C1082      H1086   1.109       .  S
C1082      H1087   1.111       .  S
C1082      H1088   1.111       .  S
C1089      C1090   1.400       .  A
C1089      C1094   1.401       .  A
C1089      H1096   1.084       .  S
C1090      C1091   1.417       .  A
C1091      C1092   1.403       .  A
C1091      C1098   1.509       .  S
C1092      C1093   1.403       .  A
C1092      H1097   1.084       .  S
C1093      C1094   1.417       .  A
C1094      C1095   1.506       .  S
C1095      H1099   1.111       .  S
C1095      H1100   1.110       .  S
C1095      H1101   1.109       .  S
C1098      H1102   1.110       .  S
C1098      H1103   1.109       .  S
C1098      H1104   1.111       .  S
C1105      N1106   1.363       .  A
C1105      N1110   1.368       .  A
C1105      C1366   1.487       .  S
N1106      C1107   1.352       .  A
C1107      N1108   1.355       .  A
C1107      C1172   1.473       .  S
N1108      C1109   1.355       .  A
C1109      N1110   1.357       .  A
C1109      C1219   1.476       .  S
C1111      N1112   1.365       .  A
C1111      N1116   1.369       .  A
C1111      C1350   1.470       .  S
N1112      C1113   1.353       .  A
C1113      N1114   1.353       .  A
C1113      C1157   1.475       .  S
N1114      C1115   1.354       .  A
C1115      N1116   1.356       .  A
C1115      C1218   1.478       .  S
C1117      N1118   1.358       .  A
C1117      N1122   1.358       .  A
C1117      C1334   1.483       .  S
N1118      C1119   1.357       .  A
C1119      N1120   1.355       .  A
C1119      C1369   1.465       .  S
N1120      C1121   1.355       .  A
C1121      N1122   1.356       .  A
C1121      C1353   1.476       .  S
C1123      N1124   1.367       .  A
C1123      N1128   1.370       .  A
C1123      C1337   1.476       .  S
N1124      C1125   1.357       .  A
C1125      N1126   1.342       .  A
C1125      C1165   1.465       .  S
N1126      C1127   1.346       .  A
C1127      N1128   1.359       .  A
C1127      C1217   1.466       .  S
Zr1129     O1131   2.405       .  S
Zr1129     O1684   2.395   1_545  S
Zr1129     O1135   2.379       .  S
Zr1129     O1137   2.363       .  S
Zr1129     O1138   2.370       .  S
Zr1129     O1140   2.390       .  S
O1130      H1186   0.990       .  S
O1130      H1746   0.990   1_565  S
O1131      C1151   1.282       .  A
O1132     Zr1681   2.388       .  S
O1132      C1153   1.276       .  A
O1133     Zr1419   2.506       .  S
O1133      C1152   1.298       .  A
O1134     Zr1142   2.477       .  S
O1134      C1153   1.291       .  A
O1135      C1152   1.276       .  A
O1136     Zr1144   2.426       .  S
O1136      C1151   1.279       .  A
O1137     Zr1694   2.397   1_545  S
O1137     Zr1144   2.383       .  S
O1138     Zr1419   2.393       .  S
O1138     Zr1144   2.374       .  S
O1138      H1173   0.965       .  S
O1139     Zr1435   2.397   1_554  S
O1139      H1176   0.966       .  S
O1140     Zr1419   2.401       .  S
Zr1141     O1168   2.382       .  S
Zr1141     O1708   2.385   1_545  S
Zr1141     O1147   2.395       .  S
Zr1141     O1148   2.397       .  S
Zr1141     O1701   2.366   1_545  S
Zr1141     O1150   2.369       .  S
Zr1141     O1166   2.441       .  S
Zr1142     O1431   2.484   1_554  S
Zr1142     O1689   2.400       .  S
Zr1142     O1976   2.401   1_554  S
Zr1142     O1425   2.389   1_554  S
Zr1142     O1154   2.436       .  S
Zr1143     O1409   2.479       .  S
Zr1143     O1169   2.482       .  S
Zr1143     O1414   2.397       .  S
Zr1143     O1416   2.403       .  S
Zr1143     O1147   2.404       .  S
Zr1143     O1150   2.392       .  S
Zr1143     O1145   2.435       .  S
Zr1143     O1443   2.437       .  S
Zr1144     O1423   2.395   1_554  S
Zr1144     O1424   2.399   1_554  S
Zr1144     O1170   2.435       .  S
Zr1144     O1447   2.436   1_554  S
Zr1144     O1146   2.436       .  S
O1145      H1182   0.990       .  S
O1146      H1177   0.990       .  S
O1146      H1191   0.990       .  S
O1147     Zr1420   2.403       .  S
O1148     Zr1970   2.404   1_545  S
O1148     Zr1420   2.400       .  S
O1148      H1174   0.966       .  S
O1149     Zr1693   2.264       .  S
O1149     Zr1418   2.293       .  S
C1151      C1265   1.463       .  S
C1152      C1269   1.485       .  S
C1153      C1281   1.475       .  S
O1154      H1190   0.990   1_554  S
O1155     Zr1418   2.486       .  S
O1155      C1157   1.293       .  A
O1156     Zr1693   2.379       .  S
O1156      C1157   1.276       .  A
O1158     Zr1435   2.440   1_554  S
O1158      H1187   0.990       .  S
Zr1159     O1164   2.431       .  S
Zr1159     O1415   2.400       .  S
Zr1159     O1434   2.439       .  S
Zr1159     O1162   2.437       .  S
Zr1159     O1715   2.445       .  S
O1160      C1717   1.281       .  A
O1161      H1178   0.991   1_655  S
O1161      H1469   0.990       .  S
O1162      H1179   0.990       .  S
O1163     Zr1711   2.442       .  S
O1163      H1183   0.991       .  S
O1163      H1192   0.990   1_565  S
O1164      C1165   1.280       .  A
C1165      O1712   1.283       .  A
O1166      H1185   0.990       .  S
O1166      H1189   0.990       .  S
O1167     Zr1419   2.436       .  S
O1167      H1181   0.990       .  S
O1167      H1188   0.990       .  S
O1168      C1172   1.277       .  A
O1169      C1172   1.293       .  A
O1170      H1180   0.990       .  S
O1171     Zr1420   2.439       .  S
O1171      H1184   0.990       .  S
H1193      O1437   0.990   1_554  S
H1194      O1682   0.990       .  S
Zr1195     O1198   2.388       .  S
Zr1195     O1753   2.386   1_545  S
Zr1195     O1756   2.372   1_545  S
Zr1195     O1205   2.388       .  S
Zr1195     O1206   2.385       .  S
Zr1195     O1196   2.443       .  S
Zr1195     O1203   2.260       .  S
O1196      H1252   0.990       .  S
O1196      H1260   0.990       .  S
O1197      C1769   1.280       .  A
O1198      C1219   1.278       .  A
O1199     Zr1209   2.484       .  S
O1199      C1218   1.293       .  A
O1200     Zr1208   2.481       .  S
O1200      C1219   1.292       .  A
O1201     Zr1747   2.379       .  S
O1201      C1218   1.276       .  A
O1202     Zr1210   2.437       .  S
O1202      C1217   1.280       .  A
O1203     Zr1208   2.296       .  S
O1204     Zr1747   2.370       .  S
O1204     Zr1209   2.400       .  S
O1205     Zr1208   2.406       .  S
O1205     Zr1225   2.401       .  S
O1205      H1242   0.966       .  S
O1206     Zr1761   2.409   1_545  S
O1206     Zr1225   2.403       .  S
Zr1207     O1226   2.406       .  S
Zr1207     O1786   2.386   1_545  S
Zr1207     O1222   2.384       .  S
Zr1207     O1214   2.393       .  S
Zr1207     O1215   2.368       .  S
Zr1207     O1216   2.368       .  S
Zr1208     O1221   2.493       .  S
Zr1208     O1214   2.400       .  S
Zr1208     O1215   2.394       .  S
Zr1208     O1227   2.436       .  S
Zr1208     O1220   2.435       .  S
Zr1209     O1235   2.484       .  S
Zr1209     O1758   2.401       .  S
Zr1209     O1768   2.390       .  S
Zr1209     O1211   2.436       .  S
Zr1210     O1213   2.403       .  S
Zr1210     O1236   2.438       .  S
Zr1210     O1237   2.437       .  S
Zr1210     O1764   2.437       .  S
O1211      H1248   0.990       .  S
O1212     Zr1762   2.436       .  S
O1212      H1243   0.990       .  S
O1212      H1257   0.990   1_565  S
O1215     Zr1225   2.383       .  S
O1216     Zr1761   2.393   1_545  S
O1216     Zr1225   2.381       .  S
O1216      H1793   0.966       .  S
C1217      O1749   1.279       .  A
O1221      C1223   1.295       .  A
O1222      C1223   1.278       .  A
C1223      C1271   1.483       .  S
O1224     Zr1225   2.438       .  S
O1224      H1253   0.990       .  S
Zr1225     O1230   2.435       .  S
Zr1225     O1228   2.437       .  S
Zr1225     O1229   2.440       .  S
O1226      C1231   1.283       .  A
O1227      H1244   0.990       .  S
O1227      H1259   0.990       .  S
O1228      H1245   0.990       .  S
O1229      H1249   0.990       .  S
O1229      H1258   0.990       .  S
O1230      C1231   1.281       .  A
C1231      C1263   1.467       .  S
O1232      H1803   0.990       .  S
O1232      H1255   0.990   1_565  S
O1233      H1247   0.990   1_655  S
O1233      H1254   0.990       .  S
O1234     Zr1759   2.393       .  S
O1234      C1238   1.279       .  A
O1235      C1238   1.293       .  A
O1236      H1246   0.990       .  S
O1237      H1802   0.989       .  S
C1238      C1283   1.478       .  S
H1241      O1768   0.966       .  S
H1250      O1789   0.989       .  S
H1251      O1784   0.990       .  S
C1261      N1262   1.370       .  A
C1261      N1266   1.369       .  A
C1261      C1318   1.486       .  S
N1262      C1263   1.360       .  A
C1263      N1264   1.344       .  A
N1264      C1265   1.343       .  A
C1265      N1266   1.359       .  A
C1267      N1268   1.369       .  A
C1267      N1272   1.371       .  A
N1268      C1269   1.354       .  A
C1269      N1270   1.355       .  A
N1270      C1271   1.356       .  A
C1271      N1272   1.357       .  A
C1273      N1274   1.363       .  A
C1273      N1278   1.357       .  A
C1273      C1321   1.486       .  S
N1274      C1275   1.363       .  A
C1275      N1276   1.356       .  A
C1275      C1286   1.478       .  S
N1276      C1277   1.355       .  A
C1277      N1278   1.357       .  A
C1277      C1305   1.477       .  S
C1279      N1280   1.367       .  A
C1279      N1284   1.371       .  A
C1279      C1289   1.488   1_455  S
C1281      N1282   1.355       .  A
N1282      C1283   1.353       .  A
C1285      C1286   1.403       .  A
C1285      C1290   1.406       .  A
C1285      H1292   1.084       .  S
C1286      C1287   1.410       .  A
C1287      C1288   1.404       .  A
C1287      C1294   1.507       .  S
C1288      C1289   1.407       .  A
C1288      H1293   1.084       .  S
C1289      C1290   1.419       .  A
C1291      H1295   1.111       .  S
C1291      H1296   1.110       .  S
C1291      H1297   1.109       .  S
C1294      H1298   1.111       .  S
C1294      H1299   1.110       .  S
C1294      H1300   1.111       .  S
C1301      C1302   1.401       .  A
C1301      C1306   1.403       .  A
C1301      H1308   1.084   1_655  S
C1303      C1310   1.509       .  S
C1304      C1305   1.402       .  A
C1304      H1309   1.084       .  S
C1305      C1306   1.416       .  A
C1306      C1307   1.508       .  S
C1307      H1311   1.111   1_655  S
C1307      H1312   1.111       .  S
C1307      H1313   1.109       .  S
C1310      H1314   1.110       .  S
C1310      H1315   1.109       .  S
C1310      H1316   1.111       .  S
C1317      C1318   1.403       .  A
C1317      C1322   1.405       .  A
C1317      H1324   1.084       .  S
C1318      C1319   1.416       .  A
C1319      C1320   1.409       .  A
C1319      C1326   1.507       .  S
C1320      C1321   1.404       .  A
C1320      H1325   1.084       .  S
C1321      C1322   1.417       .  A
C1322      C1323   1.508       .  S
C1323      H1327   1.111       .  S
C1323      H1328   1.108       .  S
C1323      H1329   1.110       .  S
C1326      H1330   1.109       .  S
C1326      H1331   1.110       .  S
C1326      H1332   1.111       .  S
C1333      C1334   1.405       .  A
C1333      C1338   1.401       .  A
C1333      H1340   1.084       .  S
C1334      C1335   1.418       .  A
C1335      C1336   1.405       .  A
C1335      C1342   1.508       .  S
C1336      C1337   1.402       .  A
C1336      H1341   1.084       .  S
C1337      C1338   1.412       .  A
C1338      C1339   1.509       .  S
C1339      H1343   1.111       .  S
C1339      H1344   1.111       .  S
C1339      H1345   1.109       .  S
C1342      H1346   1.111       .  S
C1342      H1347   1.110       .  S
C1342      H1348   1.111       .  S
C1349      C1350   1.398       .  A
C1349      C1354   1.398       .  A
C1349      H1356   1.084       .  S
C1350      C1351   1.415       .  A
C1351      C1352   1.401       .  A
C1351      C1358   1.509       .  S
C1352      C1353   1.404       .  A
C1352      H1357   1.084       .  S
C1353      C1354   1.415       .  A
C1354      C1355   1.504       .  S
C1355      H1359   1.111       .  S
C1355      H1360   1.109       .  S
C1355      H1361   1.110       .  S
C1358      H1362   1.109       .  S
C1358      H1363   1.110       .  S
C1358      H1364   1.111       .  S
C1365      C1366   1.407       .  A
C1365      C1370   1.401       .  A
C1365      H1372   1.084       .  S
C1366      C1367   1.425       .  A
C1367      C1368   1.401       .  A
C1367      C1374   1.510       .  S
C1368      C1369   1.395       .  A
C1368      H1373   1.085       .  S
C1369      C1370   1.408       .  A
C1370      C1371   1.506       .  S
C1371      H1375   1.111       .  S
C1371      H1376   1.110       .  S
C1371      H1377   1.104       .  S
C1374      H1378   1.110       .  S
C1374      H1379   1.110       .  S
C1374      H1380   1.111       .  S
C1381      N1382   1.369       .  A
C1381      N1386   1.370       .  A
C1381      C1642   1.494       .  S
N1382      C1383   1.358       .  A
C1383      N1384   1.353       .  A
C1383      C1448   1.480       .  S
N1384      C1385   1.353       .  A
C1385      N1386   1.357       .  A
C1385      C1495   1.477       .  S
C1387      N1388   1.367       .  A
C1387      N1392   1.371       .  A
C1387      C1626   1.485       .  S
N1388      C1389   1.354       .  A
C1389      N1390   1.352       .  A
C1389      C1433   1.476       .  S
N1390      C1391   1.353       .  A
C1391      N1392   1.357       .  A
C1391      C1494   1.478       .  S
C1393      N1394   1.362       .  A
C1393      N1398   1.359       .  A
C1393      C1610   1.482       .  S
N1394      C1395   1.361       .  A
C1395      N1396   1.355       .  A
C1395      C1645   1.472       .  S
N1396      C1397   1.354       .  A
C1397      N1398   1.356       .  A
C1397      C1629   1.469       .  S
C1399      N1400   1.368       .  A
C1399      N1404   1.370       .  A
C1399      C1613   1.484       .  S
N1400      C1401   1.357       .  A
C1401      N1402   1.345       .  A
C1401      C1441   1.466       .  S
N1402      C1403   1.345       .  A
C1403      N1404   1.360       .  A
C1403      C1493   1.468       .  S
Zr1405     O1407   2.393       .  S
Zr1405     O1960   2.392   1_545  S
Zr1405     O1411   2.388       .  S
Zr1405     O1414   2.372       .  S
Zr1405     O1416   2.384       .  S
Zr1405     O1413   2.264       .  S
O1406      H1462   0.989   1_655  S
O1406      H2022   0.990   1_545  S
O1407      C1427   1.279       .  A
O1408     Zr1957   2.390       .  S
O1408      C1429   1.276       .  A
O1409      C1428   1.292       .  A
O1410     Zr1418   2.479       .  S
O1410      C1429   1.291       .  A
O1411      C1428   1.277       .  A
O1412     Zr1420   2.444       .  S
O1412      C1427   1.282       .  A
O1413     Zr1970   2.299   1_545  S
O1413     Zr1420   2.287       .  S
O1414     Zr1420   2.374       .  S
O1414      H1449   0.965       .  S
O1415      H1452   0.966       .  S
Zr1417     O1444   2.389       .  S
Zr1417     O1984   2.385   1_545  S
Zr1417     O1423   2.384       .  S
Zr1417     O1424   2.387       .  S
Zr1417     O1977   2.363   1_545  S
Zr1417     O1426   2.371       .  S
Zr1417     O1442   2.435       .  S
Zr1418     O1700   2.401       .  S
Zr1418     O1430   2.439       .  S
Zr1418     O1965   2.302       .  S
Zr1419     O1445   2.489   1_554  S
Zr1419     O1423   2.400   1_554  S
Zr1419     O1426   2.398   1_554  S
Zr1419     O1421   2.435   1_554  S
Zr1420     O1446   2.438       .  S
Zr1420     O1422   2.436       .  S
O1421      H1458   0.990   1_556  S
O1422      H1453   0.990       .  S
O1422      H1467   0.990       .  S
O1424     Zr1694   2.402   1_546  S
O1424      H1450   0.965       .  S
O1425     Zr1969   2.362       .  S
C1427      C1541   1.467       .  S
C1428      C1545   1.476       .  S
C1429      C1557   1.478       .  S
O1430      H1466   0.990       .  S
O1431      C1433   1.293       .  A
O1432     Zr1969   2.380       .  S
O1432      C1433   1.277       .  A
O1434      H1463   0.990       .  S
Zr1435     O1440   2.437       .  S
Zr1435     O1438   2.437       .  S
Zr1435     O1991   2.440       .  S
O1436      C1993   1.280       .  A
O1437      H1454   0.991   1_656  S
O1438      H1455   0.990       .  S
O1439     Zr1987   2.439   1_554  S
O1439      H1459   0.990   1_554  S
O1439      H1468   0.990   1_564  S
O1440      C1441   1.282       .  A
C1441      O1988   1.281       .  A
O1442      H1461   0.990       .  S
O1442      H1465   0.990       .  S
O1443      H1457   0.990       .  S
O1443      H1464   0.990       .  S
O1444      C1448   1.279       .  A
O1445      C1448   1.294       .  A
O1446      H1456   0.991       .  S
O1447      H1460   0.990       .  S
H1470      O1958   0.990       .  S
Zr1471     O1474   2.395       .  S
Zr1471     O2029   2.387   1_545  S
Zr1471     O2032   2.369   1_545  S
Zr1471     O1481   2.390       .  S
Zr1471     O1482   2.387       .  S
Zr1471     O1472   2.430       .  S
Zr1471     O1479   2.264       .  S
O1472      H1528   0.988       .  S
O1472      H1536   0.990       .  S
O1473      C2045   1.281       .  A
O1474      C1495   1.278       .  A
O1475     Zr1485   2.486       .  S
O1475      C1494   1.293       .  A
O1476     Zr1484   2.473       .  S
O1476      C1495   1.289       .  A
O1477     Zr2023   2.384       .  S
O1477      C1494   1.278       .  A
O1478     Zr1486   2.435       .  S
O1478      C1493   1.280       .  A
O1479     Zr1484   2.301       .  S
O1480     Zr2023   2.370       .  S
O1480     Zr1485   2.397       .  S
O1481     Zr1484   2.405       .  S
O1481     Zr1501   2.398       .  S
O1481      H1518   0.966       .  S
O1482     Zr2037   2.404   1_545  S
O1482     Zr1501   2.397       .  S
Zr1483     O1502   2.408       .  S
Zr1483     O2062   2.382   1_545  S
Zr1483     O1498   2.395       .  S
Zr1483     O1490   2.391       .  S
Zr1483     O1492   2.377       .  S
Zr1483     O1491   2.261       .  S
Zr1484     O1497   2.484       .  S
Zr1484     O1490   2.402       .  S
Zr1484     O1503   2.439       .  S
Zr1484     O1496   2.438       .  S
Zr1484     O1491   2.295       .  S
Zr1485     O1511   2.493       .  S
Zr1485     O2034   2.404       .  S
Zr1485     O2044   2.389       .  S
Zr1485     O1487   2.435       .  S
Zr1486     O1489   2.402       .  S
Zr1486     O1512   2.436       .  S
Zr1486     O1513   2.438       .  S
Zr1486     O2040   2.438       .  S
O1487      H1524   0.990       .  S
O1488     Zr2038   2.436       .  S
O1488      H1519   0.990       .  S
O1488      H1533   0.990   1_565  S
O1491     Zr1501   2.291       .  S
O1492     Zr2037   2.405   1_545  S
O1492     Zr1501   2.379       .  S
O1492      H2069   0.966       .  S
C1493      O2025   1.281       .  A
O1497      C1499   1.291       .  A
O1498      C1499   1.279       .  A
C1499      C1547   1.484       .  S
O1500     Zr1501   2.440       .  S
O1500      H1529   0.990       .  S
Zr1501     O1506   2.432       .  S
Zr1501     O1504   2.437       .  S
Zr1501     O1505   2.443       .  S
O1502      C1507   1.282       .  A
O1503      H1520   0.991       .  S
O1503      H1535   0.990       .  S
O1504      H1521   0.990       .  S
O1505      H1525   0.990       .  S
O1505      H1534   0.990       .  S
O1506      C1507   1.280       .  A
C1507      C1539   1.467       .  S
O1508      H2079   0.990       .  S
O1508      H1531   0.990   1_565  S
O1509      H1523   0.990   1_655  S
O1509      H1530   0.990       .  S
O1510     Zr2035   2.390       .  S
O1510      C1514   1.279       .  A
O1511      C1514   1.295       .  A
O1512      H1522   0.990       .  S
O1513      H2078   0.990       .  S
C1514      C1559   1.483       .  S
H1517      O2044   0.966       .  S
H1526      O2065   0.990       .  S
H1527      O2060   0.990       .  S
C1537      N1538   1.369       .  A
C1537      N1542   1.370       .  A
C1537      C1594   1.486       .  S
N1538      C1539   1.358       .  A
C1539      N1540   1.344       .  A
N1540      C1541   1.345       .  A
C1541      N1542   1.357       .  A
C1543      N1544   1.366       .  A
C1543      N1548   1.372       .  A
N1544      C1545   1.353       .  A
C1545      N1546   1.353       .  A
N1546      C1547   1.353       .  A
C1547      N1548   1.361       .  A
C1549      N1550   1.361       .  A
C1549      N1554   1.354       .  A
C1549      C1597   1.473       .  S
N1550      C1551   1.362       .  A
C1551      N1552   1.356       .  A
C1551      C1562   1.477       .  S
N1552      C1553   1.352       .  A
C1553      N1554   1.353       .  A
C1553      C1581   1.467       .  S
C1555      N1556   1.369       .  A
C1555      N1560   1.366       .  A
C1555      C1565   1.477   1_455  S
C1557      N1558   1.356       .  A
N1558      C1559   1.356       .  A
C1561      C1562   1.406       .  A
C1561      C1566   1.402       .  A
C1561      H1568   1.084       .  S
C1562      C1563   1.412       .  A
C1563      C1564   1.403       .  A
C1563      C1570   1.507       .  S
C1564      C1565   1.406       .  A
C1564      H1569   1.084       .  S
C1565      C1566   1.411       .  A
C1567      H1571   1.111       .  S
C1567      H1572   1.110       .  S
C1567      H1573   1.110       .  S
C1570      H1574   1.110       .  S
C1570      H1575   1.109       .  S
C1570      H1576   1.111       .  S
C1577      C1578   1.404       .  A
C1577      C1582   1.401       .  A
C1577      H1584   1.084   1_655  S
C1579      C1586   1.509       .  S
C1580      C1581   1.399       .  A
C1580      H1585   1.084       .  S
C1581      C1582   1.411       .  A
C1582      C1583   1.508       .  S
C1583      H1587   1.111       .  S
C1583      H1588   1.110       .  S
C1583      H1589   1.109       .  S
C1586      H1590   1.110       .  S
C1586      H1591   1.109       .  S
C1586      H1592   1.111       .  S
C1593      C1594   1.405       .  A
C1593      C1598   1.400       .  A
C1593      H1600   1.084       .  S
C1594      C1595   1.420       .  A
C1595      C1596   1.406       .  A
C1595      C1602   1.508       .  S
C1596      C1597   1.400       .  A
C1596      H1601   1.084       .  S
C1597      C1598   1.412       .  A
C1598      C1599   1.509       .  S
C1599      H1603   1.111       .  S
C1599      H1604   1.109       .  S
C1599      H1605   1.110       .  S
C1602      H1606   1.109       .  S
C1602      H1607   1.110       .  S
C1602      H1608   1.111       .  S
C1609      C1610   1.403       .  A
C1609      C1614   1.403       .  A
C1609      H1616   1.084       .  S
C1610      C1611   1.414       .  A
C1611      C1612   1.406       .  A
C1611      C1618   1.505       .  S
C1612      C1613   1.405       .  A
C1612      H1617   1.084       .  S
C1613      C1614   1.417       .  A
C1614      C1615   1.508       .  S
C1615      H1619   1.111       .  S
C1615      H1620   1.110       .  S
C1615      H1621   1.109       .  S
C1618      H1622   1.111       .  S
C1618      H1623   1.109       .  S
C1618      H1624   1.111       .  S
C1625      C1626   1.406       .  A
C1625      C1630   1.401       .  A
C1625      H1632   1.084       .  S
C1626      C1627   1.423       .  A
C1627      C1628   1.403       .  A
C1627      C1634   1.509       .  S
C1628      C1629   1.398       .  A
C1628      H1633   1.084       .  S
C1629      C1630   1.409       .  A
C1630      C1631   1.507       .  S
C1631      H1635   1.111       .  S
C1631      H1636   1.109       .  S
C1631      H1637   1.111       .  S
C1634      H1638   1.110       .  S
C1634      H1639   1.110       .  S
C1634      H1640   1.111       .  S
C1641      C1642   1.411       .  A
C1641      C1646   1.403       .  A
C1641      H1648   1.083       .  S
C1642      C1643   1.422       .  A
C1643      C1644   1.405       .  A
C1643      C1650   1.508       .  S
C1644      C1645   1.400       .  A
C1644      H1649   1.084       .  S
C1645      C1646   1.407       .  A
C1646      C1647   1.506       .  S
C1647      H1651   1.111       .  S
C1647      H1652   1.107       .  S
C1647      H1653   1.111       .  S
C1650      H1654   1.110       .  S
C1650      H1655   1.110       .  S
C1650      H1656   1.111       .  S
C1657      N1658   1.366       .  A
C1657      N1662   1.368       .  A
C1657      C1918   1.487       .  S
N1658      C1659   1.356       .  A
C1659      N1660   1.356       .  A
C1659      C1724   1.479       .  S
N1660      C1661   1.356       .  A
C1661      N1662   1.355       .  A
C1661      C1771   1.477       .  S
C1663      N1664   1.369       .  A
C1663      N1668   1.369       .  A
C1663      C1902   1.481       .  S
N1664      C1665   1.356       .  A
C1665      N1666   1.352       .  A
C1665      C1709   1.479       .  S
N1666      C1667   1.353       .  A
C1667      N1668   1.355       .  A
C1667      C1770   1.477       .  S
C1669      N1670   1.358       .  A
C1669      N1674   1.360       .  A
C1669      C1886   1.482       .  S
N1670      C1671   1.358       .  A
C1671      N1672   1.356       .  A
C1671      C1921   1.469       .  S
N1672      C1673   1.356       .  A
C1673      N1674   1.357       .  A
C1673      C1905   1.476       .  S
C1675      N1676   1.367       .  A
C1675      N1680   1.369       .  A
C1675      C1889   1.475       .  S
N1676      C1677   1.356       .  A
C1677      N1678   1.343       .  A
C1677      C1717   1.461       .  S
N1678      C1679   1.344       .  A
C1679      N1680   1.358       .  A
C1679      C1769   1.464       .  S
Zr1681     O1683   2.397       .  S
Zr1681     O1687   2.389       .  S
Zr1681     O1689   2.367       .  S
Zr1681     O1690   2.367       .  S
Zr1681     O1692   2.381       .  S
O1682      H1738   0.990       .  S
O1683      C1703   1.280       .  A
O1684      C1705   1.278       .  A
O1685     Zr1971   2.483       .  S
O1685      C1704   1.293       .  A
O1686     Zr1694   2.486       .  S
O1686      C1705   1.293       .  A
O1687      C1704   1.279       .  A
O1688     Zr1696   2.427       .  S
O1688      C1703   1.279       .  A
O1689     Zr1696   2.381       .  S
O1690     Zr1971   2.393       .  S
O1690     Zr1696   2.382       .  S
O1690      H1725   0.965       .  S
O1691     Zr1987   2.397   1_554  S
O1691      H1728   0.967       .  S
O1692     Zr1971   2.399       .  S
Zr1693     O1720   2.387       .  S
Zr1693     O1699   2.388       .  S
Zr1693     O1700   2.394       .  S
Zr1693     O1702   2.370       .  S
Zr1693     O1718   2.434       .  S
Zr1694     O1983   2.486   1_554  S
Zr1694     O1977   2.394   1_554  S
Zr1694     O1706   2.434       .  S
Zr1695     O1961   2.482       .  S
Zr1695     O1721   2.488       .  S
Zr1695     O1966   2.398       .  S
Zr1695     O1968   2.408       .  S
Zr1695     O1699   2.401       .  S
Zr1695     O1702   2.393       .  S
Zr1695     O1697   2.435       .  S
Zr1695     O1995   2.437       .  S
Zr1696     O1975   2.401   1_554  S
Zr1696     O1976   2.397   1_554  S
Zr1696     O1722   2.436       .  S
Zr1696     O1999   2.437   1_554  S
Zr1696     O1698   2.436       .  S
O1697      H1734   0.990       .  S
O1698      H1729   0.990       .  S
O1698      H1743   0.990       .  S
O1699     Zr1972   2.407       .  S
O1700     Zr1972   2.400       .  S
O1700      H1726   0.965       .  S
O1701     Zr1970   2.395       .  S
C1703      C1817   1.461       .  S
C1704      C1821   1.479       .  S
C1705      C1833   1.481       .  S
O1706      H1742   0.990       .  S
O1707     Zr1970   2.484       .  S
O1707      C1709   1.292       .  A
O1708      C1709   1.277       .  A
O1710     Zr1987   2.438   1_554  S
O1710      H1739   0.990       .  S
Zr1711     O1716   2.431       .  S
Zr1711     O1967   2.400       .  S
Zr1711     O1986   2.438       .  S
Zr1711     O1714   2.435       .  S
O1713      H1730   0.990   1_455  S
O1713      H2021   0.990   1_455  S
O1714      H1731   0.990       .  S
O1715      H1735   0.990       .  S
O1715      H1744   0.990       .  S
O1716      C1717   1.280       .  A
O1718      H1737   0.990       .  S
O1718      H1741   0.990       .  S
O1719     Zr1971   2.436       .  S
O1719      H1733   0.990       .  S
O1719      H1740   0.990   1_554  S
O1720      C1724   1.277       .  A
O1721      C1724   1.293       .  A
O1722      H1732   0.990       .  S
O1723     Zr1972   2.439       .  S
O1723      H1736   0.990       .  S
H1745      O1989   0.990   1_554  S
Zr1747     O1750   2.391       .  S
Zr1747     O1757   2.387       .  S
Zr1747     O1758   2.383       .  S
Zr1747     O1748   2.434       .  S
Zr1747     O1755   2.258       .  S
O1748      H1804   0.988       .  S
O1748      H1812   0.990       .  S
O1750      C1771   1.277       .  A
O1751     Zr1761   2.479       .  S
O1751      C1770   1.292       .  A
O1752     Zr1760   2.480       .  S
O1752      C1771   1.292       .  A
O1753      C1770   1.277       .  A
O1754     Zr1762   2.438       .  S
O1754      C1769   1.281       .  A
O1755     Zr1760   2.301       .  S
O1756     Zr1761   2.397       .  S
O1757     Zr1760   2.404       .  S
O1757     Zr1777   2.401       .  S
O1757      H1794   0.967       .  S
O1758     Zr1777   2.397       .  S
Zr1759     O1778   2.403       .  S
Zr1759     O1774   2.389       .  S
Zr1759     O1766   2.390       .  S
Zr1759     O1767   2.367       .  S
Zr1759     O1768   2.368       .  S
Zr1760     O1773   2.487       .  S
Zr1760     O1766   2.401       .  S
Zr1760     O1767   2.393       .  S
Zr1760     O1779   2.437       .  S
Zr1760     O1772   2.436       .  S
Zr1761     O1787   2.495       .  S
Zr1761     O1763   2.436       .  S
Zr1762     O1765   2.402       .  S
Zr1762     O1788   2.438       .  S
Zr1762     O1789   2.436       .  S
O1763      H1800   0.990       .  S
O1764      H1795   0.990       .  S
O1764      H1809   0.990       .  S
O1767     Zr1777   2.385       .  S
O1768     Zr1777   2.379       .  S
O1773      C1775   1.293       .  A
O1774      C1775   1.279       .  A
C1775      C1823   1.483       .  S
O1776     Zr1777   2.438       .  S
O1776      H1805   0.990       .  S
Zr1777     O1782   2.437       .  S
Zr1777     O1780   2.436       .  S
Zr1777     O1781   2.440       .  S
O1778      C1783   1.282       .  A
O1779      H1796   0.990       .  S
O1779      H1811   0.990       .  S
O1780      H1797   0.990       .  S
O1781      H1801   0.990       .  S
O1781      H1810   0.990       .  S
O1782      C1783   1.282       .  A
C1783      C1815   1.464       .  S
O1784      H1807   0.990       .  S
O1785      H1799   0.990       .  S
O1785      H1806   0.990   1_655  S
O1786      C1790   1.278       .  A
O1787      C1790   1.295       .  A
O1788      H1798   0.990       .  S
C1790      C1835   1.481       .  S
C1813      N1814   1.368       .  A
C1813      N1818   1.369       .  A
C1813      C1870   1.486       .  S
N1814      C1815   1.357       .  A
C1815      N1816   1.343       .  A
N1816      C1817   1.343       .  A
C1817      N1818   1.357       .  A
C1819      N1820   1.368       .  A
C1819      N1824   1.371       .  A
N1820      C1821   1.355       .  A
C1821      N1822   1.352       .  A
N1822      C1823   1.354       .  A
C1823      N1824   1.359       .  A
C1825      N1826   1.359       .  A
C1825      N1830   1.354       .  A
C1825      C1873   1.470       .  S
N1826      C1827   1.360       .  A
C1827      N1828   1.356       .  A
C1827      C1838   1.471       .  S
N1828      C1829   1.354       .  A
C1829      N1830   1.354       .  A
C1829      C1857   1.470       .  S
C1831      N1832   1.367       .  A
C1831      N1836   1.366       .  A
C1831      C1841   1.478   1_455  S
C1833      N1834   1.355       .  A
N1834      C1835   1.356       .  A
C1837      C1838   1.402       .  A
C1837      C1842   1.401       .  A
C1837      H1844   1.084       .  S
C1838      C1839   1.410       .  A
C1839      C1840   1.402       .  A
C1839      C1846   1.508       .  S
C1840      C1841   1.407       .  A
C1840      H1845   1.084       .  S
C1841      C1842   1.414       .  A
C1843      H1847   1.111       .  S
C1843      H1848   1.110       .  S
C1843      H1849   1.109       .  S
C1846      H1850   1.110       .  S
C1846      H1851   1.110       .  S
C1846      H1852   1.111       .  S
C1853      C1854   1.403       .  A
C1853      C1858   1.402       .  A
C1853      H1860   1.084   1_655  S
C1855      C1862   1.508       .  S
C1856      C1857   1.400       .  A
C1856      H1861   1.084       .  S
C1857      C1858   1.413       .  A
C1858      C1859   1.508       .  S
C1859      H1863   1.111       .  S
C1859      H1864   1.111       .  S
C1859      H1865   1.109       .  S
C1862      H1866   1.110       .  S
C1862      H1867   1.109       .  S
C1862      H1868   1.111       .  S
C1869      C1870   1.406       .  A
C1869      C1874   1.401       .  A
C1869      H1876   1.084       .  S
C1870      C1871   1.420       .  A
C1871      C1872   1.404       .  A
C1871      C1878   1.508       .  S
C1872      C1873   1.399       .  A
C1872      H1877   1.085       .  S
C1873      C1874   1.411       .  A
C1874      C1875   1.509       .  S
C1875      H1879   1.111       .  S
C1875      H1880   1.109       .  S
C1875      H1881   1.110       .  S
C1878      H1882   1.109       .  S
C1878      H1883   1.110       .  S
C1878      H1884   1.111       .  S
C1885      C1886   1.404       .  A
C1885      C1890   1.400       .  A
C1885      H1892   1.084       .  S
C1886      C1887   1.418       .  A
C1887      C1888   1.406       .  A
C1887      C1894   1.508       .  S
C1888      C1889   1.402       .  A
C1888      H1893   1.084       .  S
C1889      C1890   1.413       .  A
C1890      C1891   1.509       .  S
C1891      H1895   1.111       .  S
C1891      H1896   1.110       .  S
C1891      H1897   1.109       .  S
C1894      H1898   1.110       .  S
C1894      H1899   1.109       .  S
C1894      H1900   1.111       .  S
C1901      C1902   1.403       .  A
C1901      C1906   1.400       .  A
C1901      H1908   1.084       .  S
C1902      C1903   1.418       .  A
C1903      C1904   1.404       .  A
C1903      C1910   1.508       .  S
C1904      C1905   1.402       .  A
C1904      H1909   1.084       .  S
C1905      C1906   1.412       .  A
C1906      C1907   1.503       .  S
C1907      H1911   1.111       .  S
C1907      H1912   1.106       .  S
C1907      H1913   1.111       .  S
C1910      H1914   1.109       .  S
C1910      H1915   1.110       .  S
C1910      H1916   1.111       .  S
C1917      C1918   1.407       .  A
C1917      C1922   1.400       .  A
C1917      H1924   1.084       .  S
C1918      C1919   1.423       .  A
C1919      C1920   1.404       .  A
C1919      C1926   1.509       .  S
C1920      C1921   1.399       .  A
C1920      H1925   1.084       .  S
C1921      C1922   1.408       .  A
C1922      C1923   1.505       .  S
C1923      H1927   1.111       .  S
C1923      H1928   1.111       .  S
C1923      H1929   1.102       .  S
C1926      H1930   1.111       .  S
C1926      H1931   1.109       .  S
C1926      H1932   1.111       .  S
C1933      N1934   1.365       .  A
C1933      N1938   1.372       .  A
C1933      C2194   1.499       .  S
N1934      C1935   1.354       .  A
C1935      N1936   1.353       .  A
C1935      C2000   1.476       .  S
N1936      C1937   1.355       .  A
C1937      N1938   1.359       .  A
C1937      C2047   1.482       .  S
C1939      N1940   1.367       .  A
C1939      N1944   1.370       .  A
C1939      C2178   1.474       .  S
N1940      C1941   1.355       .  A
C1941      N1942   1.353       .  A
C1941      C1985   1.479       .  S
N1942      C1943   1.354       .  A
C1943      N1944   1.358       .  A
C1943      C2046   1.483       .  S
C1945      N1946   1.360       .  A
C1945      N1950   1.357       .  A
C1945      C2162   1.478       .  S
N1946      C1947   1.359       .  A
C1947      N1948   1.355       .  A
C1947      C2197   1.466       .  S
N1948      C1949   1.354       .  A
C1949      N1950   1.356       .  A
C1949      C2181   1.476       .  S
C1951      N1952   1.370       .  A
C1951      N1956   1.365       .  A
C1951      C2165   1.480       .  S
N1952      C1953   1.359       .  A
C1953      N1954   1.344       .  A
C1953      C1993   1.462       .  S
N1954      C1955   1.341       .  A
C1955      N1956   1.355       .  A
C1955      C2045   1.459       .  S
Zr1957     O1959   2.391       .  S
Zr1957     O1963   2.381       .  S
Zr1957     O1966   2.370       .  S
Zr1957     O1968   2.389       .  S
Zr1957     O1965   2.266       .  S
O1958      H2014   0.989   1_655  S
O1959      C1979   1.278       .  A
O1960      C1981   1.279       .  A
O1961      C1980   1.293       .  A
O1962     Zr1970   2.483       .  S
O1962      C1981   1.292       .  A
O1963      C1980   1.276       .  A
O1964     Zr1972   2.443       .  S
O1964      C1979   1.282       .  A
O1965     Zr1972   2.288       .  S
O1966     Zr1972   2.378       .  S
O1966      H2001   0.965       .  S
O1967      H2004   0.966       .  S
Zr1969     O1996   2.387       .  S
Zr1969     O1975   2.385       .  S
Zr1969     O1976   2.389       .  S
Zr1969     O1978   2.370       .  S
Zr1969     O1994   2.434       .  S
Zr1970     O1982   2.435       .  S
Zr1971     O1997   2.482   1_554  S
Zr1971     O1975   2.396   1_554  S
Zr1971     O1978   2.393   1_554  S
Zr1971     O1973   2.435   1_554  S
Zr1972     O1998   2.439       .  S
Zr1972     O1974   2.436       .  S
O1973      H2010   0.990       .  S
O1974      H2005   0.990       .  S
O1974      H2019   0.990       .  S
O1976      H2002   0.966       .  S
C1979      C2093   1.467       .  S
C1980      C2097   1.476       .  S
C1981      C2109   1.478       .  S
O1982      H2018   0.990       .  S
O1983      C1985   1.293       .  A
O1984      C1985   1.278       .  A
O1986      H2015   0.990       .  S
Zr1987     O1992   2.429       .  S
Zr1987     O1990   2.437       .  S
O1989      H2006   0.990   1_656  S
O1990      H2007   0.990       .  S
O1991      H2011   0.990       .  S
O1991      H2020   0.990   1_556  S
O1992      C1993   1.279       .  A
O1994      H2013   0.990       .  S
O1994      H2017   0.990       .  S
O1995      H2009   0.990       .  S
O1995      H2016   0.990       .  S
O1996      C2000   1.278       .  A
O1997      C2000   1.293       .  A
O1998      H2008   0.989       .  S
O1999      H2012   0.990       .  S
Zr2023     O2026   2.398       .  S
Zr2023     O2031   2.367       .  S
Zr2023     O2033   2.388       .  S
Zr2023     O2034   2.385       .  S
Zr2023     O2024   2.430       .  S
O2024      H2080   0.988       .  S
O2024      H2088   0.990       .  S
O2026      C2047   1.278       .  A
O2027     Zr2037   2.490       .  S
O2027      C2046   1.293       .  A
O2028     Zr2036   2.487       .  S
O2028      C2047   1.292       .  A
O2029      C2046   1.278       .  A
O2030     Zr2038   2.424       .  S
O2030      C2045   1.279       .  A
O2031     Zr2036   2.403       .  S
O2032     Zr2037   2.391       .  S
O2033     Zr2036   2.406       .  S
O2033     Zr2053   2.393       .  S
O2033      H2070   0.967       .  S
O2034     Zr2053   2.395       .  S
Zr2035     O2054   2.407       .  S
Zr2035     O2050   2.382       .  S
Zr2035     O2042   2.389       .  S
Zr2035     O2043   2.367       .  S
Zr2035     O2044   2.367       .  S
Zr2036     O2049   2.488       .  S
Zr2036     O2042   2.403       .  S
Zr2036     O2043   2.394       .  S
Zr2036     O2055   2.435       .  S
Zr2036     O2048   2.436       .  S
Zr2037     O2063   2.478       .  S
Zr2037     O2039   2.437       .  S
Zr2038     O2041   2.402       .  S
Zr2038     O2064   2.435       .  S
Zr2038     O2065   2.435       .  S
O2039      H2076   0.990       .  S
O2040      H2071   0.990       .  S
O2040      H2085   0.990       .  S
O2043     Zr2053   2.381       .  S
O2044     Zr2053   2.382       .  S
O2049      C2051   1.294       .  A
O2050      C2051   1.278       .  A
C2051      C2099   1.479       .  S
O2052     Zr2053   2.439       .  S
O2052      H2081   0.990       .  S
Zr2053     O2058   2.426       .  S
Zr2053     O2056   2.436       .  S
Zr2053     O2057   2.437       .  S
O2054      C2059   1.283       .  A
O2055      H2072   0.990       .  S
O2055      H2087   0.990       .  S
O2056      H2073   0.990       .  S
O2057      H2077   0.990       .  S
O2057      H2086   0.990       .  S
O2058      C2059   1.280       .  A
C2059      C2091   1.463       .  S
O2060      H2083   0.990       .  S
O2061      H2075   0.990       .  S
O2061      H2082   0.990       .  S
O2062      C2066   1.276       .  A
O2063      C2066   1.292       .  A
O2064      H2074   0.990       .  S
C2066      C2111   1.472       .  S
C2089      N2090   1.367       .  A
C2089      N2094   1.371       .  A
C2089      C2146   1.490       .  S
N2090      C2091   1.357       .  A
C2091      N2092   1.343       .  A
N2092      C2093   1.345       .  A
C2093      N2094   1.358       .  A
C2095      N2096   1.366       .  A
C2095      N2100   1.369       .  A
N2096      C2097   1.353       .  A
C2097      N2098   1.353       .  A
N2098      C2099   1.355       .  A
C2099      N2100   1.357       .  A
C2101      N2102   1.361       .  A
C2101      N2106   1.356       .  A
C2101      C2149   1.475       .  S
N2102      C2103   1.363       .  A
C2103      N2104   1.358       .  A
C2103      C2114   1.487       .  S
N2104      C2105   1.355       .  A
C2105      N2106   1.354       .  A
C2105      C2133   1.471       .  S
C2107      N2108   1.370       .  A
C2107      N2112   1.366       .  A
C2107      C2117   1.479   1_455  S
C2109      N2110   1.354       .  A
N2110      C2111   1.354       .  A
C2113      C2114   1.409       .  A
C2113      C2118   1.404       .  A
C2113      H2120   1.084       .  S
C2114      C2115   1.416       .  A
C2115      C2116   1.405       .  A
C2115      C2122   1.508       .  S
C2116      C2117   1.404       .  A
C2116      H2121   1.084       .  S
C2117      C2118   1.410       .  A
C2119      H2123   1.111       .  S
C2119      H2124   1.110       .  S
C2119      H2125   1.110       .  S
C2122      H2126   1.110       .  S
C2122      H2127   1.109       .  S
C2122      H2128   1.111       .  S
C2129      C2130   1.405       .  A
C2129      C2134   1.402       .  A
C2129      H2136   1.084       .  S
C2131      C2138   1.509       .  S
C2132      C2133   1.400       .  A
C2132      H2137   1.084       .  S
C2133      C2134   1.410       .  A
C2134      C2135   1.507       .  S
C2135      H2139   1.111       .  S
C2135      H2140   1.111       .  S
C2135      H2141   1.109       .  S
C2138      H2142   1.110       .  S
C2138      H2143   1.109       .  S
C2138      H2144   1.111       .  S
C2145      C2146   1.406       .  A
C2145      C2150   1.402       .  A
C2145      H2152   1.084       .  S
C2146      C2147   1.422       .  A
C2147      C2148   1.408       .  A
C2147      C2154   1.508       .  S
C2148      C2149   1.401       .  A
C2148      H2153   1.084       .  S
C2149      C2150   1.411       .  A
C2150      C2151   1.508       .  S
C2151      H2155   1.111       .  S
C2151      H2156   1.109       .  S
C2151      H2157   1.110       .  S
C2154      H2158   1.109       .  S
C2154      H2159   1.110       .  S
C2154      H2160   1.111       .  S
C2161      C2162   1.403       .  A
C2161      C2166   1.402       .  A
C2161      H2168   1.084       .  S
C2162      C2163   1.413       .  A
C2163      C2164   1.404       .  A
C2163      C2170   1.507       .  S
C2164      C2165   1.404       .  A
C2164      H2169   1.084       .  S
C2165      C2166   1.417       .  A
C2166      C2167   1.509       .  S
C2167      H2171   1.111       .  S
C2167      H2172   1.109       .  S
C2167      H2173   1.110       .  S
C2170      H2174   1.109       .  S
C2170      H2175   1.110       .  S
C2170      H2176   1.111       .  S
C2177      C2178   1.402       .  A
C2177      C2182   1.403       .  A
C2177      H2184   1.084       .  S
C2178      C2179   1.414       .  A
C2179      C2180   1.400       .  A
C2179      C2186   1.508       .  S
C2180      C2181   1.402       .  A
C2180      H2185   1.084       .  S
C2181      C2182   1.416       .  A
C2182      C2183   1.507       .  S
C2183      H2187   1.111       .  S
C2183      H2188   1.109       .  S
C2183      H2189   1.110       .  S
C2186      H2190   1.109       .  S
C2186      H2191   1.110       .  S
C2186      H2192   1.111       .  S
C2193      C2194   1.410       .  A
C2193      C2198   1.400       .  A
C2193      H2200   1.083       .  S
C2194      C2195   1.430       .  A
C2195      C2196   1.406       .  A
C2195      C2202   1.510       .  S
C2196      C2197   1.396       .  A
C2196      H2201   1.085       .  S
C2197      C2198   1.405       .  A
C2198      C2199   1.507       .  S
C2199      H2203   1.111       .  S
C2199      H2204   1.110       .  S
C2199      H2205   1.108       .  S
C2202      H2206   1.110       .  S
C2202      H2207   1.110       .  S
C2202      H2208   1.111       .  S
