geometry optimzed in LAMMPS
_audit_creation_date              2020-11-30 
_audit_creation_method            'lammps2cif' 
_symmetry_space_group_name_H-M    'P1' 
_symmetry_Int_Tables_number       1 
_symmetry_cell_setting            triclinic 
loop_ 
_symmetry_equiv_pos_as_xyz 
  x,y,z 
_cell_length_a                    48.06327298658098 
_cell_length_b                    47.1866326099227 
_cell_length_c                    47.42594123424784 
_cell_angle_alpha                 88.95280547653788 
_cell_angle_beta                  89.621899955358 
_cell_angle_gamma                 90.21720230836584 
loop_ 
_atom_site_label 
_atom_site_type_symbol 
_atom_site_fract_x 
_atom_site_fract_y 
_atom_site_fract_z 
_atom_site_charge 
O1          O  0.98677462  0.57380008  0.81293752    -0.79860
O2          O  0.01367264  0.69312410  0.77578810    -0.64550
O3          O  0.01983971  0.62122352  0.81334905    -1.11150
C4          C  0.96347183  0.65745233  0.88185221     1.07030
O5          O  0.00688712  0.72048741  0.81298417    -0.77760
O6          O  0.03212369  0.68300983  0.85209813    -0.65340
Ni7        Ni  0.01816073  0.58759587  0.79231271     1.34870
C8          C  0.03691843  0.66036102  0.86632136     0.85760
O9          O  0.04573511  0.64814333  0.76761539    -0.78300
O10         O  0.04974332  0.60057248  0.77176447    -0.88570
C11         C  0.01113918  0.71739133  0.78661405     0.85340
O12         O  0.99277567  0.59932959  0.76402328    -0.66770
O13         O  0.98133114  0.67726729  0.87850502    -0.86060
C14         C  0.97877288  0.62182127  0.76124882     0.86170
C15         C  0.05879064  0.62496547  0.76404960     1.07740
H16         H  0.97033763  0.66578767  0.81365069     0.39540
O17         O  0.98854930  0.66388550  0.82197451    -1.08720
O18         O  0.02027841  0.63896515  0.86661144    -0.65370
Ni19       Ni  0.99148734  0.62704489  0.84033995     1.26350
O20         O  0.98662879  0.64549765  0.77042271    -0.65600
O21         O  0.96292389  0.63565018  0.86650839    -0.77890
C22         C  0.99030366  0.56739587  0.83855154     0.85550
O23         O  0.99421645  0.58776372  0.85569290    -0.65070
Ni24       Ni  0.99515498  0.69606800  0.84462975     1.27450
Ni25       Ni  0.01673363  0.65683464  0.79414867     1.26060
H26         H  0.03766549  0.62088276  0.82262641     0.40090
O27         O  0.99862581  0.30134685  0.77639029    -0.79860
O28         O  0.98951831  0.42402852  0.83661357    -0.64550
O29         O  0.97853241  0.35500894  0.79383921    -1.11150
C30         C  0.04748864  0.39960549  0.73597931     1.07030
O31         O  0.98684797  0.44777335  0.79683734    -0.77760
O32         O  0.99149330  0.42896961  0.74457296    -0.65340
Ni33       Ni  0.98402578  0.31887954  0.81085530     1.34870
C34         C  0.97204599  0.41099006  0.74200094     0.85760
O35         O  0.95588256  0.37757543  0.84188394    -0.78300
O36         O  0.96761566  0.33143341  0.84608789    -0.88570
C37         C  0.98863652  0.44788431  0.82336132     0.85340
O38         O  0.02054017  0.32880990  0.82338296    -0.66770
O39         O  0.04667825  0.41955299  0.75359130    -0.86060
C40         C  0.02591469  0.34974358  0.83904900     0.86170
C41         C  0.95510806  0.35366021  0.85467829     1.07740
H42         H  0.03068711  0.39161548  0.79851061     0.39540
O43         O  0.01298609  0.39588594  0.78995539    -1.08720
O44         O  0.97440179  0.38515287  0.74857663    -0.65370
Ni45       Ni  0.00474432  0.36560851  0.76519056     1.26350
O46         O  0.01078887  0.37162992  0.84069450    -0.65600
O47         O  0.03073205  0.37845857  0.73618774    -0.77890
C48         C  0.99700839  0.30815204  0.75010668     0.85550
O49         O  0.99558508  0.33401742  0.74217880    -0.65070
Ni50       Ni  0.01668994  0.43290978  0.77514539     1.27450
Ni51       Ni  0.98396887  0.38836102  0.81615187     1.26060
H52         H  0.95975540  0.35517325  0.78667262     0.40090
O53         O  0.05382589  0.51454978  0.64143590    -0.79860
O54         O  0.17285756  0.51027162  0.69259300    -0.64550
O55         O  0.11060024  0.53184015  0.64684030    -1.11150
C56         C  0.14251818  0.46473597  0.58610769     1.07030
O57         O  0.20351192  0.50367777  0.65819263    -0.77760
O58         O  0.17668999  0.53039861  0.61180806    -0.65340
Ni59       Ni  0.07546016  0.53909990  0.66416344     1.34870
C60         C  0.15638811  0.53864162  0.59651504     0.85760
O61         O  0.13692769  0.55227911  0.69576666    -0.78300
O62         O  0.09298036  0.56556463  0.68767731    -0.88570
C63         C  0.19753211  0.50523693  0.68449237     0.85340
O64         O  0.07682716  0.50828260  0.69058252    -0.66770
O65         O  0.16527861  0.47767833  0.59123220    -0.86060
C66         C  0.09531400  0.48954620  0.69457080     0.86170
C67         C  0.11684934  0.56941181  0.69821197     1.07740
H68         H  0.14468761  0.47376051  0.65341245     0.39540
O69         O  0.14687365  0.49216109  0.64436077    -1.08720
O70         O  0.13303408  0.52541523  0.59587933    -0.65370
Ni71       Ni  0.11410642  0.50033549  0.62280218     1.26350
O72         O  0.12109226  0.49461785  0.69214079    -0.65600
O73         O  0.12027770  0.46894384  0.59990428    -0.77890
C74         C  0.05533957  0.50815003  0.61574470     0.85550
O75         O  0.07886997  0.50710674  0.60290300    -0.65070
Ni76       Ni  0.18180596  0.49219079  0.62520028     1.27450
Ni77       Ni  0.14185367  0.52178000  0.67029497     1.26060
H78         H  0.11551062  0.54909687  0.63673635     0.40090
O79         O  0.79983281  0.52851470  0.66879330    -0.79860
O80         O  0.91723377  0.50113817  0.60709494    -0.64550
O81         O  0.84954254  0.50077682  0.65290278    -1.11150
C82         C  0.90165871  0.57098972  0.70077364     1.07030
O83         O  0.93993365  0.49666652  0.64661416    -0.77760
O84         O  0.92351134  0.50775174  0.69887035    -0.65340
Ni85       Ni  0.81432875  0.50823138  0.63659965     1.34870
C86         C  0.90306346  0.49153883  0.70426918     0.85760
O87         O  0.86789432  0.47128546  0.60670816    -0.78300
O88         O  0.82357239  0.48662948  0.60386128    -0.88570
C89         C  0.94027727  0.49722626  0.62001532     0.85340
O90         O  0.82716624  0.54281383  0.61934215    -0.66770
O91         O  0.92205114  0.56383784  0.68525849    -0.86060
C92         C  0.84836361  0.54621707  0.60339141     0.86170
C93         C  0.84350900  0.47062362  0.59637753     1.07740
H94         H  0.89179160  0.54888203  0.64161135     0.39540
O95         O  0.89347661  0.53115153  0.65193003    -1.08720
O96         O  0.87832206  0.49758386  0.69824781    -0.65370
Ni97       Ni  0.86309172  0.52884692  0.67793786     1.26350
O98         O  0.86805119  0.52827836  0.60217494    -0.65600
O99         O  0.87862745  0.55719324  0.70271000    -0.77890
C100        C  0.80618847  0.52708624  0.69485632     0.85550
O101        O  0.83145055  0.52512996  0.70248077    -0.65070
Ni102      Ni  0.93020415  0.53035854  0.66591936     1.27450
Ni103      Ni  0.88207947  0.50086753  0.62889865     1.26060
H104        H  0.84809380  0.48243716  0.66222639     0.40090
O105        O  0.56188369  0.99814958  0.80485292    -0.79860
O106        O  0.68740807  0.02187713  0.76616354    -0.64550
O107        O  0.61856238  0.99358044  0.79650916    -1.11150
C108        C  0.65100888  0.04580478  0.87344787     1.07030
O109        O  0.71101682  0.00290275  0.80148794    -0.77760
O110        O  0.68243758  0.98235268  0.84979448    -0.65340
Ni111      Ni  0.58709933  0.00490581  0.77463722     1.34870
C112        C  0.65950290  0.97102156  0.85776776     0.85760
O113        O  0.64751699  0.98848899  0.74528662    -0.78300
O114        O  0.60955173  0.01137304  0.74229339    -0.88570
C115        C  0.71025618  0.01341636  0.77635092     0.85340
O116        O  0.59413961  0.04231554  0.78645389    -0.66770
O117        O  0.67544881  0.03778326  0.86612432    -0.86060
C118        C  0.61438262  0.05683757  0.77643634     0.86170
C119        C  0.62338700  0.99030779  0.73534998     1.07740
H120        H  0.65704399  0.04582707  0.81247072     0.39540
O121        O  0.65753519  0.02547907  0.81492971    -1.08720
O122        O  0.63588900  0.98128529  0.85096725    -0.65370
Ni123      Ni  0.62236101  0.01428263  0.83065926     1.26350
O124        O  0.63692979  0.04496175  0.76784736    -0.65600
O125        O  0.62848951  0.03658690  0.86273273    -0.77890
C126        C  0.56274889  0.99887722  0.83150603     0.85550
O127        O  0.58508542  0.00438017  0.84513664    -0.65070
Ni128      Ni  0.69143368  0.01910856  0.83397044     1.27450
Ni129      Ni  0.65296377  0.00813857  0.78014639     1.26060
H130        H  0.61920275  0.97328947  0.79959824     0.40090
O131        O  0.45096811  0.99519420  0.79754333    -0.79860
O132        O  0.33925972  0.00458649  0.74063537    -0.64550
O133        O  0.39900137  0.02073169  0.79071843    -1.11150
C134        C  0.35882675  0.95650431  0.85126048     1.07030
O135        O  0.30721560  0.00292561  0.77467733    -0.77760
O136        O  0.33322186  0.02444940  0.82185489    -0.65340
Ni137      Ni  0.43550673  0.02687318  0.77723733     1.34870
C138        C  0.35315550  0.03016187  0.83842295     0.85760
O139        O  0.38078244  0.04403433  0.73910888    -0.78300
O140        O  0.42175746  0.05860903  0.75699029    -0.88570
C141        C  0.31389344  0.00271715  0.74855195     0.85340
O142        O  0.43391448  0.00425678  0.74443444    -0.66770
O143        O  0.33713179  0.96988530  0.84328241    -0.86060
C144        C  0.41662362  0.98511630  0.73818705     0.86170
C145        C  0.40081293  0.06191237  0.74094260     1.07740
H146        H  0.36126222  0.96548188  0.78256527     0.39540
O147        O  0.36024414  0.98385401  0.79119324    -1.08720
O148        O  0.37436145  0.01428668  0.84078667    -0.65370
Ni149      Ni  0.39201123  0.98906902  0.81484977     1.26350
O150        O  0.39118368  0.98559897  0.74532211    -0.65600
O151        O  0.38210346  0.95809458  0.83844486    -0.77890
C152        C  0.44962953  0.99338213  0.82419364     0.85550
O153        O  0.42597325  0.99415494  0.83648408    -0.65070
Ni154      Ni  0.32469653  0.98738056  0.80844197     1.27450
Ni155      Ni  0.36985895  0.01342603  0.76485019     1.26060
H156        H  0.39417852  0.03792972  0.80029028     0.40090
O157        O  0.51120553  0.21686346  0.65541562    -0.79860
O158        O  0.51129879  0.08294564  0.62489672    -0.64550
O159        O  0.49603048  0.15853813  0.65215118    -1.11150
C160        C  0.55284411  0.13391517  0.72555638     1.07030
O161        O  0.53289754  0.06368450  0.66213409    -0.77760
O162        O  0.49415339  0.09435129  0.69000246    -0.65340
Ni163      Ni  0.49776714  0.19033526  0.62709724     1.34870
C164        C  0.48091595  0.11615719  0.69787938     0.85760
O165        O  0.47407890  0.12397184  0.61243716    -0.78300
O166        O  0.48170979  0.16851810  0.59674462    -0.88570
C167        C  0.52290744  0.06184665  0.63752101     0.85340
O168        O  0.53486485  0.18163521  0.61556518    -0.66770
O169        O  0.53491088  0.11450182  0.72367755    -0.86060
C170        C  0.54209642  0.15862526  0.60415025     0.86170
C171        C  0.46906123  0.14460605  0.59560057     1.07740
H172        H  0.55231348  0.12362646  0.65563156     0.39540
O173        O  0.53425752  0.12195084  0.66459465    -1.08720
O174        O  0.49346531  0.13939349  0.70366428    -0.65370
Ni175      Ni  0.52309960  0.15726205  0.68087324     1.26350
O176        O  0.52954256  0.13507452  0.60864821    -0.65600
O177        O  0.55177789  0.15501911  0.70889665    -0.77890
C178        C  0.51003979  0.21578688  0.68236627     0.85550
O179        O  0.51143850  0.19247284  0.69603885    -0.65070
Ni180      Ni  0.53331125  0.09098527  0.69125641     1.27450
Ni181      Ni  0.50423654  0.12160903  0.63786941     1.26060
H182        H  0.47737737  0.15842873  0.65985124     0.40090
O183        O  0.50609558  0.92775616  0.60009989    -0.79860
O184        O  0.50541400  0.80138371  0.65976345    -0.64550
O185        O  0.49769242  0.87896781  0.63230338    -1.11150
C186        C  0.56124082  0.89511650  0.70278371     1.07030
O187        O  0.49292632  0.81976751  0.70026891    -0.77760
O188        O  0.48800743  0.87437069  0.70763808    -0.65340
Ni189      Ni  0.50168210  0.88738992  0.59332291     1.34870
C190        C  0.48679031  0.89904243  0.69698128     0.85760
O191        O  0.47433013  0.82720009  0.61752537    -0.78300
O192        O  0.49605517  0.84899453  0.58240909    -0.88570
C193        C  0.49858720  0.79816358  0.68585270     0.85340
O194        O  0.53974621  0.87856616  0.59906643    -0.66770
O195        O  0.54475705  0.87916727  0.71734474    -0.86060
C196        C  0.54848105  0.85356093  0.60511964     0.86170
C197        C  0.47632395  0.83361726  0.59152532     1.07740
H198        H  0.54553918  0.84419490  0.66634697     0.39540
O199        O  0.52784357  0.85341672  0.66918395    -1.08720
O200        O  0.50491446  0.90837693  0.67966139    -0.65370
Ni201      Ni  0.52964800  0.89035977  0.65366398     1.26350
O202        O  0.53328937  0.83448751  0.61785733    -0.65600
O203        O  0.56043695  0.89830880  0.67619417    -0.77890
C204        C  0.52062302  0.94103660  0.61795859     0.85550
O205        O  0.53304371  0.92801438  0.63783716    -0.65070
Ni206      Ni  0.51890942  0.84936538  0.70783580     1.27450
Ni207      Ni  0.50153360  0.83969793  0.64387785     1.26060
H208        H  0.48045300  0.88661690  0.63939490     0.40090
O209        O  0.30655133  0.80220985  0.99135624    -0.79860
O210        O  0.42508627  0.86596169  0.98627502    -0.64550
O211        O  0.35929851  0.82132739  0.97088004    -1.11150
C212        C  0.40002706  0.75980270  0.03850230     1.07030
O213        O  0.45109845  0.82807638  0.98177426    -0.77760
O214        O  0.43345188  0.77535530  0.97828348    -0.65340
Ni215      Ni  0.32305342  0.83698589  0.97549434     1.34870
C216        C  0.41469235  0.77004552  0.96049169     0.85760
O217        O  0.38134604  0.87147029  0.95112262    -0.78300
O218        O  0.33489278  0.87225429  0.95773938    -0.88570
C219        C  0.44901676  0.85468204  0.98346797     0.85340
O220        O  0.32934645  0.85193935  0.01233588    -0.66770
O221        O  0.42207288  0.77455696  0.03520198    -0.86060
C222        C  0.35003701  0.86670460  0.02018311     0.86170
C223        C  0.35735808  0.88166486  0.94632848     1.07740
H224        H  0.39417345  0.82298779  0.02475516     0.39540
O225        O  0.39852936  0.81590707  0.00626435    -1.08720
O226        O  0.38902348  0.77475510  0.96481148    -0.65370
Ni227      Ni  0.36875193  0.79108270  0.99588026     1.26350
O228        O  0.37336755  0.86687007  0.00726789    -0.65600
O229        O  0.37889657  0.76141858  0.02239452    -0.77890
C230        C  0.31240107  0.77638797  0.98608936     0.85550
O231        O  0.33765364  0.76849507  0.98451827    -0.65070
Ni232      Ni  0.43525197  0.80148176  0.00832381     1.27450
Ni233      Ni  0.39111308  0.84444953  0.97882924     1.26060
H234        H  0.36071444  0.81528493  0.95156692     0.40090
O235        O  0.71326705  0.82638736  0.97746092    -0.79860
O236        O  0.58478568  0.87292656  0.98369243    -0.64550
O237        O  0.65613073  0.83511440  0.99271108    -1.11150
C238        C  0.62490194  0.78084249  0.92133803     1.07030
O239        O  0.56151648  0.83992682  0.95970746    -0.77760
O240        O  0.59013491  0.80129746  0.98997923    -0.65340
Ni241      Ni  0.68963360  0.85695622  0.99233989     1.34870
C242        C  0.61089775  0.78844123  0.00050517     0.85760
O243        O  0.62775482  0.87614225  0.02080323    -0.78300
O244        O  0.67151250  0.88862716  0.01035032    -0.88570
C245        C  0.56235015  0.86307450  0.97280367     0.85340
O246        O  0.68139764  0.87220799  0.95539623    -0.66770
O247        O  0.60737997  0.77803909  0.94100426    -0.86060
C248        C  0.65967475  0.88636285  0.94876121     0.86170
C249        C  0.64972431  0.89033973  0.02583713     1.07740
H250        H  0.62038680  0.84478861  0.93691758     0.39540
O251        O  0.61841940  0.83334203  0.95390520    -1.08720
O252        O  0.63338134  0.78455613  0.98639807    -0.65370
Ni253      Ni  0.65195524  0.81204848  0.96084123     1.26350
O254        O  0.63739417  0.88533749  0.96378116    -0.65600
O255        O  0.64815392  0.79146896  0.92671881    -0.77890
C256        C  0.70871967  0.80006887  0.97295501     0.85550
O257        O  0.68441977  0.79109711  0.96845737    -0.65070
Ni258      Ni  0.58601446  0.80993644  0.95111784     1.27450
Ni259      Ni  0.62161720  0.85511780  0.98749878     1.26060
H260        H  0.65544808  0.82418305  0.01012780     0.40090
O261        O  0.52711668  0.67364974  0.03105972    -0.79860
O262        O  0.51784748  0.72149112  0.15657335    -0.64550
O263        O  0.53385852  0.68211222  0.08831434    -1.11150
C264        C  0.47030443  0.61569967  0.12406114     1.07030
O265        O  0.51634980  0.68352638  0.18508565    -0.77760
O266        O  0.53649496  0.63884145  0.15436201    -0.65340
Ni267      Ni  0.53076920  0.70538491  0.05491639     1.34870
C268        C  0.54326796  0.62585895  0.13211861     0.85760
O269        O  0.55556303  0.72941252  0.11425274    -0.78300
O270        O  0.53485751  0.73946171  0.07505053    -0.88570
C271        C  0.51690793  0.71033902  0.18117278     0.85340
O272        O  0.49214031  0.70511716  0.06225455    -0.66770
O273        O  0.48295830  0.62043998  0.14704726    -0.86060
C274        C  0.48082456  0.71526625  0.08417325     0.86170
C275        C  0.55573206  0.74197865  0.09052343     1.07740
H276        H  0.47997973  0.68222378  0.12946736     0.39540
O277        O  0.49842435  0.67418697  0.12922989    -1.08720
O278        O  0.53046531  0.62845129  0.10865306    -0.65370
Ni279      Ni  0.50386082  0.65556642  0.09391169     1.26350
O280        O  0.49537189  0.72363998  0.10513051    -0.65600
O281        O  0.47421889  0.62994942  0.10140557    -0.77890
C282        C  0.51613153  0.64923618  0.03327878     0.85550
O283        O  0.50749893  0.63853192  0.05679431    -0.65070
Ni284      Ni  0.50063982  0.65284005  0.16346270     1.27450
Ni285      Ni  0.52606859  0.70235081  0.12241672     1.26060
H286        H  0.55189659  0.67318536  0.08918228     0.40090
O287        O  0.51188177  0.68584380  0.76942682    -0.79860
O288        O  0.50583853  0.63529109  0.89510833    -0.64550
O289        O  0.49013507  0.67205366  0.82369689    -1.11150
C290        C  0.55896533  0.73525046  0.85478771     1.07030
O291        O  0.50373840  0.67657747  0.91586239    -0.77760
O292        O  0.50512561  0.72829104  0.89179502    -0.65340
Ni293      Ni  0.49608534  0.65286070  0.78940680     1.34870
C294        C  0.48400532  0.72931738  0.87602110     0.85760
O295        O  0.47021132  0.62564087  0.85184172    -0.78300
O296        O  0.47866162  0.61904647  0.80547124    -0.88570
C297        C  0.50456202  0.64977725  0.91753484     0.85340
O298        O  0.53262299  0.63947032  0.79861294    -0.66770
O299        O  0.55932841  0.72079553  0.87775690    -0.86060
C300        C  0.53866808  0.62492641  0.82050087     0.86170
C301        C  0.46629606  0.61271150  0.82881233     1.07740
H302        H  0.54396111  0.67250911  0.85626966     0.39540
O303        O  0.52622897  0.68062614  0.86129081    -1.08720
O304        O  0.48409803  0.71975816  0.85110233    -0.65370
Ni305      Ni  0.51422153  0.70293268  0.82977417     1.26350
O306        O  0.52501552  0.62660299  0.84344110    -0.65600
O307        O  0.53973633  0.73373991  0.83642759    -0.77890
C308        C  0.50516806  0.71184525  0.77217352     0.85550
O309        O  0.50148140  0.72228855  0.79651897    -0.65070
Ni310      Ni  0.53153859  0.69855235  0.89603684     1.27450
Ni311      Ni  0.49821096  0.65258506  0.85832547     1.26060
H312        H  0.47097186  0.67818220  0.82406158     0.40090
O313        O  0.83157944  0.56870282  0.98848655    -0.79860
O314        O  0.78898642  0.68752535  0.97080603    -0.64550
O315        O  0.83542187  0.62255021  0.96557381    -1.11150
C316        C  0.88046786  0.65376076  0.04316390     1.07030
O317        O  0.81904260  0.71756887  0.98952008    -0.77760
O318        O  0.86738363  0.68851676  0.97405193    -0.65340
Ni319      Ni  0.82081917  0.58767482  0.95413524     1.34870
C320        C  0.88308227  0.66730802  0.96957235     0.85760
O321        O  0.79552430  0.64879745  0.93135631    -0.78300
O322        O  0.80986074  0.60519644  0.91945494    -0.88570
C323        C  0.79539636  0.71229456  0.97863422     0.85340
O324        O  0.78396236  0.59123869  0.96903081    -0.66770
O325        O  0.87690383  0.67735638  0.03018674    -0.86060
C326        C  0.77359356  0.60976076  0.98499404     0.86170
C327        C  0.79759183  0.62858394  0.91394646     1.07740
H328        H  0.81510705  0.65710985  0.01891562     0.39540
O329        O  0.82865752  0.65933690  0.00385136    -1.08720
O330        O  0.88229114  0.64435965  0.98422120    -0.65370
Ni331      Ni  0.85102695  0.62541871  0.00209449     1.26350
O332        O  0.78292883  0.63472755  0.98668400    -0.65600
O333        O  0.86658048  0.63146755  0.03812726    -0.77890
C334        C  0.85680676  0.56640876  0.99586841     0.85550
O335        O  0.87127292  0.58895906  0.99952243    -0.65070
Ni336      Ni  0.84748581  0.69463972  0.00844385     1.27450
Ni337      Ni  0.81196867  0.65477464  0.96759979     1.26060
H338        H  0.84959406  0.62668582  0.95160457     0.40090
O339        O  0.82642241  0.44948644  0.98564298    -0.79860
O340        O  0.76906288  0.33765169  0.97409595    -0.64550
O341        O  0.81371572  0.39551442  0.00567527    -1.11150
C342        C  0.88117285  0.35536781  0.94845657     1.07030
O343        O  0.79902059  0.30509009  0.98820314    -0.77760
O344        O  0.84941027  0.32471805  0.01098152    -0.65340
Ni345      Ni  0.79903378  0.43228215  0.00960958     1.34870
C346        C  0.86457795  0.34475775  0.01998324     0.85760
O347        O  0.75757972  0.37729445  0.01066556    -0.78300
O348        O  0.77063463  0.41667264  0.03313740    -0.88570
C349        C  0.77432804  0.31211164  0.98064664     0.85340
O350        O  0.77495420  0.43307790  0.97798467    -0.66770
O351        O  0.86988121  0.33228974  0.95763399    -0.86060
C352        C  0.77296185  0.41670979  0.95723558     0.86170
C353        C  0.75359475  0.39655487  0.02851372     1.07740
H354        H  0.81849222  0.36073794  0.94910409     0.39540
O355        O  0.82212146  0.35824418  0.96901105    -1.08720
O356        O  0.86442829  0.36980728  0.00963497    -0.65370
Ni357      Ni  0.84424250  0.38975750  0.98063898     1.26350
O358        O  0.77932518  0.39071144  0.95837832    -0.65600
O359        O  0.87306807  0.38031051  0.95488189    -0.77890
C360        C  0.85202561  0.44841879  0.99109918     0.85550
O361        O  0.86420684  0.42430239  0.99197849    -0.65070
Ni362      Ni  0.83468032  0.32058011  0.97379362     1.27450
Ni363      Ni  0.79016308  0.36731972  0.98988860     1.26060
H364        H  0.81882533  0.38896442  0.02434690     0.40090
O365        O  0.71978430  0.49593715  0.15276014    -0.79860
O366        O  0.64640828  0.51553902  0.04640932    -0.64550
O367        O  0.68125522  0.52169253  0.11811586    -1.11150
C368        C  0.61391797  0.45973005  0.15081126     1.07030
O369        O  0.61091280  0.48610979  0.05365478    -0.77760
O370        O  0.60905084  0.52225732  0.10114897    -0.65340
Ni371      Ni  0.72046639  0.51742810  0.11826115     1.34870
C372        C  0.61600766  0.53289452  0.12474573     0.85760
O373        O  0.68210924  0.55047772  0.06796268    -0.78300
O374        O  0.72472069  0.53901062  0.08338708    -0.88570
C375        C  0.62665305  0.50065980  0.03711312     0.85340
O376        O  0.71856625  0.48182129  0.10085777    -0.66770
O377        O  0.60084599  0.47646047  0.13445613    -0.86060
C378        C  0.70566018  0.47571747  0.07876206     0.86170
C379        C  0.70831944  0.55329156  0.06750412     1.07740
H380        H  0.65484608  0.46684230  0.09254155     0.39540
O381        O  0.64712684  0.48432731  0.09926399    -1.08720
O382        O  0.63197289  0.52036021  0.14281102    -0.65370
Ni383      Ni  0.66112435  0.49215163  0.13650309     1.26350
O384        O  0.69124739  0.49402763  0.06583559    -0.65600
O385        O  0.64008226  0.46170684  0.15363281    -0.77890
C386        C  0.70518320  0.49967357  0.17469198     0.85550
O387        O  0.67852368  0.50055682  0.17286264    -0.65070
Ni388      Ni  0.60807961  0.48258684  0.09483077     1.27450
Ni389      Ni  0.66385389  0.51797171  0.08242421     1.26060
H390        H  0.67677575  0.53989432  0.12595946     0.40090
O391        O  0.66979264  0.50152314  0.91699430    -0.79860
O392        O  0.72393618  0.51603533  0.80532371    -0.64550
O393        O  0.67363661  0.52905408  0.86538007    -1.11150
C394        C  0.61928161  0.46407145  0.82036776     1.07030
O395        O  0.69137363  0.52204518  0.77307682    -0.77760
O396        O  0.64168157  0.53706500  0.80003634    -0.65340
Ni397      Ni  0.68784970  0.53467677  0.90184698     1.34870
C398        C  0.62420698  0.53926433  0.82019088     0.85760
O399        O  0.72462459  0.55226703  0.84731180    -0.78300
O400        O  0.70622552  0.56795387  0.88770538    -0.88570
C401        C  0.71708680  0.52025233  0.77988023     0.85340
O402        O  0.72121674  0.51305466  0.89870881    -0.66770
O403        O  0.62585290  0.48076315  0.79978184    -0.86060
C404        C  0.72643409  0.49339960  0.88164957     0.86170
C405        C  0.72234074  0.57080778  0.86635133     1.07740
H406        H  0.68322477  0.47653080  0.82417230     0.39540
O407        O  0.67437356  0.49488214  0.82460267    -1.08720
O408        O  0.62383090  0.52216841  0.84133223    -0.65370
Ni409      Ni  0.65111816  0.49688149  0.85746178     1.26350
O410        O  0.71824982  0.49382160  0.85639968    -0.65600
O411        O  0.62949597  0.46554586  0.84519713    -0.77890
C412        C  0.64356025  0.49915049  0.91709327     0.85550
O413        O  0.63052826  0.49863912  0.89351899    -0.65070
Ni414      Ni  0.65860067  0.50216613  0.78878932     1.27450
Ni415      Ni  0.69953263  0.52314881  0.83578661     1.26060
H416        H  0.66356636  0.54614905  0.86070350     0.40090
O417        O  0.99260009  0.78619657  0.67956763    -0.79860
O418        O  0.00470225  0.83431287  0.55919792    -0.64550
O419        O  0.02163321  0.81004418  0.63432181    -1.11150
C420        C  0.98658263  0.89553232  0.65625315     1.07030
O421        O  0.00764259  0.88118468  0.56122010    -0.77760
O422        O  0.04394895  0.87523259  0.60620312    -0.65340
Ni423      Ni  0.00972543  0.77270043  0.64597990     1.34870
C424        C  0.05452865  0.87144697  0.63051550     0.85760
O425        O  0.03159444  0.79200574  0.58131953    -0.78300
O426        O  0.02631081  0.75637713  0.61296859    -0.88570
C427        C  0.00509721  0.85847158  0.54718986     0.85340
O428        O  0.97349034  0.77297319  0.63018370    -0.66770
O429        O  0.00698078  0.90115243  0.64015453    -0.86060
C430        C  0.96377091  0.78643314  0.60923726     0.86170
C431        C  0.03498406  0.76658561  0.58937324     1.07740
H432        H  0.97428113  0.85167319  0.61203665     0.39540
O433        O  0.99420885  0.85278428  0.61433995    -1.08720
O434        O  0.04041855  0.86109061  0.65149368    -0.65370
Ni435      Ni  0.00457356  0.84065103  0.65257982     1.26350
O436        O  0.97808406  0.80380160  0.59467650    -0.65600
O437        O  0.98504868  0.87158409  0.66867317    -0.77890
C438        C  0.00570305  0.80070999  0.69721872     0.85550
O439        O  0.01435540  0.82549661  0.68997393    -0.65070
Ni440      Ni  0.00724419  0.88929037  0.60174116     1.27450
Ni441      Ni  0.01294621  0.82241020  0.59694236     1.26060
H442        H  0.04156308  0.81094757  0.63670075     0.40090
O443        O  0.01943362  0.81084031  0.42877930    -0.79860
O444        O  0.00500717  0.76684548  0.30227001    -0.64550
O445        O  0.02269802  0.80417001  0.37074943    -1.11150
C446        C  0.95643534  0.86904165  0.34129943     1.07030
O447        O  0.00296671  0.80550088  0.27491938    -0.77760
O448        O  0.02230381  0.84935830  0.30785161    -0.65340
Ni449      Ni  0.02250965  0.77987219  0.40331951     1.34870
C450        C  0.02940574  0.86131134  0.33056487     0.85760
O451        O  0.04341997  0.75881458  0.34131258    -0.78300
O452        O  0.02611451  0.74593426  0.38215767    -0.88570
C453        C  0.00552274  0.77866082  0.27806763     0.85340
O454        O  0.98373426  0.77878876  0.39855701    -0.66770
O455        O  0.96833928  0.86572528  0.31744691    -0.86060
C456        C  0.97176096  0.76772592  0.37756600     0.86170
C457        C  0.04423142  0.74325926  0.36308996     1.07740
H458        H  0.96708307  0.80337292  0.33257696     0.39540
O459        O  0.98527206  0.81214642  0.33230365    -1.08720
O460        O  0.01652581  0.85811037  0.35395884    -0.65370
Ni461      Ni  0.99152271  0.82936028  0.36823957     1.26350
O462        O  0.98478706  0.76171390  0.35473319    -0.65600
O463        O  0.96103527  0.85392107  0.36316478    -0.77890
C464        C  0.00714618  0.83461985  0.42831497     0.85550
O465        O  0.99625486  0.84514921  0.40587096    -0.65070
Ni466      Ni  0.98659995  0.83478884  0.29874915     1.27450
Ni467      Ni  0.01375678  0.78506478  0.33646819     1.26060
H468        H  0.04036759  0.81385186  0.36893733     0.40090
O469        O  0.19151811  0.71406468  0.45608337    -0.79860
O470        O  0.08412557  0.64821924  0.48556279    -0.64550
O471        O  0.15692178  0.67994504  0.48694905    -1.11150
C472        C  0.17992434  0.60936377  0.42608208     1.07030
O473        O  0.08615735  0.61211708  0.45634715    -0.77760
O474        O  0.13385123  0.60672280  0.49039148    -0.65340
Ni475      Ni  0.15952322  0.71938676  0.47915861     1.34870
C476        C  0.15701656  0.61317029  0.50187422     0.85760
O477        O  0.11028336  0.68445911  0.51702358    -0.78300
O478        O  0.12681965  0.72681239  0.50183159    -0.88570
C479        C  0.07221307  0.62883583  0.47194110     0.85340
O480        O  0.13991545  0.71770021  0.44483228    -0.66770
O481        O  0.16480862  0.59672572  0.44436811    -0.86060
C482        C  0.11646435  0.70654996  0.44120678     0.86170
C483        C  0.11130158  0.71125387  0.51788254     1.07740
H484        H  0.12829063  0.65413005  0.43453168     0.39540
O485        O  0.13456565  0.64565144  0.45200391    -1.08720
O486        O  0.17648136  0.62753344  0.48896417    -0.65370
Ni487      Ni  0.17274506  0.65721861  0.45914773     1.26350
O488        O  0.10458890  0.69239214  0.46075937    -0.65600
O489        O  0.18722361  0.63483623  0.42937764    -0.77890
C490        C  0.21240554  0.69990579  0.46386767     0.85550
O491        O  0.20987933  0.67289953  0.46701735    -0.65070
Ni492      Ni  0.12646960  0.60632056  0.45122598     1.27450
Ni493      Ni  0.12082344  0.66421597  0.48522195     1.26060
H494        H  0.16502809  0.67596192  0.50518946     0.40090
O495        O  0.95542223  0.67758656  0.47927438    -0.79860
O496        O  0.83568444  0.72769166  0.49009894    -0.64550
O497        O  0.90153450  0.68434242  0.50354089    -1.11150
C498        C  0.86234992  0.62028625  0.44295168     1.07030
O499        O  0.80509045  0.69276061  0.48729366    -0.77760
O500        O  0.83557467  0.64861044  0.51104001    -0.65340
Ni501      Ni  0.93663423  0.70375837  0.50322088     1.34870
C502        C  0.85639657  0.63338550  0.51770312     0.85760
O503        O  0.87567795  0.73210913  0.52626248    -0.78300
O504        O  0.92227250  0.73174427  0.52782426    -0.88570
C505        C  0.81082917  0.71908737  0.48924955     0.85340
O506        O  0.92970008  0.72488862  0.46991360    -0.66770
O507        O  0.84126620  0.62565144  0.45843343    -0.86060
C508        C  0.90776675  0.73238253  0.45733866     0.86170
C509        C  0.89856957  0.73972582  0.53658093     1.07740
H510        H  0.86129420  0.68818607  0.45013178     0.39540
O511        O  0.86091977  0.67954981  0.46875908    -1.08720
O512        O  0.87846854  0.63242167  0.50252324    -0.65370
Ni513      Ni  0.89471027  0.65804848  0.47449240     1.26350
O514        O  0.88366178  0.73024981  0.46788748    -0.65600
O515        O  0.88559051  0.63295484  0.44525916    -0.77890
C516        C  0.95401577  0.65084387  0.47900845     0.85550
O517        O  0.93033705  0.63820926  0.47997873    -0.65070
Ni518      Ni  0.82614104  0.66009867  0.47361980     1.27450
Ni519      Ni  0.86833297  0.70636312  0.49711401     1.26060
H520        H  0.89978475  0.67503219  0.52177766     0.40090
O521        O  0.83828782  0.02352249  0.54353728    -0.79860
O522        O  0.78947308  0.01168025  0.66899992    -0.64550
O523        O  0.82943455  0.02908779  0.60086079    -1.11150
C524        C  0.89435527  0.96800398  0.63804796     1.07030
O525        O  0.82583954  0.01579575  0.69715793    -0.77760
O526        O  0.86926621  0.03750834  0.66226224    -0.65340
Ni527      Ni  0.80705548  0.02756806  0.56771702     1.34870
C528        C  0.88400614  0.04125293  0.64000211     0.85760
O529        O  0.78298102  0.05075291  0.62895178    -0.78300
O530        O  0.77406016  0.03266795  0.58878661    -0.88570
C531        C  0.79957807  0.01417292  0.69334948     0.85340
O532        O  0.80557414  0.98805207  0.57427538    -0.66770
O533        O  0.88959103  0.98360655  0.65921295    -0.86060
C534        C  0.79477910  0.97599473  0.59593101     0.86170
C535        C  0.77321030  0.05360649  0.60471301     1.07740
H536        H  0.82865966  0.97462952  0.64398585     0.39540
O537        O  0.83643465  0.99350507  0.64225457    -1.08720
O538        O  0.88198353  0.02523906  0.61871641    -0.65370
Ni539      Ni  0.85482726  0.99816059  0.60632207     1.26350
O540        O  0.78788598  0.98995371  0.61793330    -0.65600
O541        O  0.87982821  0.96824510  0.61558259    -0.77890
C542        C  0.86193261  0.01183921  0.54510520     0.85550
O543        O  0.87165121  0.00129051  0.56824736    -0.65070
Ni544      Ni  0.85714340  0.00060287  0.67547741     1.27450
Ni545      Ni  0.80892764  0.02075412  0.63529168     1.26060
H546        H  0.83855239  0.04729979  0.60199039     0.40090
O547        O  0.80891974  0.00516164  0.28264665    -0.79860
O548        O  0.86456422  0.00237780  0.40766011    -0.64550
O549        O  0.82153335  0.99024025  0.33989770    -1.11150
C550        C  0.76503317  0.05968079  0.37371269     1.07030
O551        O  0.83550693  0.02931395  0.43246962    -0.77760
O552        O  0.79648985  0.99531279  0.40960916    -0.65340
Ni553      Ni  0.83934707  0.98778337  0.30396453     1.34870
C554        C  0.78083154  0.98379433  0.39159069     0.85760
O555        O  0.86476088  0.96389686  0.36711009    -0.78300
O556        O  0.87056393  0.96784115  0.32007274    -0.88570
C557        C  0.85765417  0.01500312  0.43035285     0.85340
O558        O  0.85781054  0.02333310  0.30778893    -0.66770
O559        O  0.76773980  0.04172441  0.39341049    -0.86060
C560        C  0.87303453  0.03093173  0.32820241     0.86170
C561        C  0.87615246  0.95677951  0.34409991     1.07740
H562        H  0.83248554  0.04796829  0.37133823     0.39540
O563        O  0.82193294  0.03097064  0.37567597    -1.08720
O564        O  0.77458917  0.99601788  0.36802878    -0.65370
Ni565      Ni  0.79792883  0.02173171  0.34473049     1.26350
O566        O  0.87172544  0.01960064  0.35285998    -0.65600
O567        O  0.77579924  0.05510813  0.34993082    -0.77890
C568        C  0.78307372  0.00756491  0.28857657     0.85550
O569        O  0.77497047  0.01165100  0.31373557    -0.65070
Ni570      Ni  0.80275154  0.03480114  0.41071895     1.27450
Ni571      Ni  0.84381529  0.99714363  0.37262722     1.26060
H572        H  0.81147565  0.97266141  0.34284863     0.40090
O573        O  0.67410098  0.06392347  0.50141754    -0.79860
O574        O  0.71674223  0.19180610  0.48711287    -0.64550
O575        O  0.68002892  0.12220246  0.50658601    -1.11150
C576        C  0.61313776  0.15325206  0.44454527     1.07030
O577        O  0.67964718  0.21946146  0.48610105    -0.77760
O578        O  0.63898218  0.18380188  0.51103363    -0.65340
Ni579      Ni  0.70413116  0.09011084  0.50592150     1.34870
C580        C  0.62531251  0.16126243  0.51700961     0.85760
O581        O  0.72384475  0.15305729  0.52762969    -0.78300
O582        O  0.73705156  0.11231879  0.51139848    -0.88570
C583        C  0.70599908  0.21618182  0.48524597     0.85340
O584        O  0.70671288  0.09584764  0.46645273    -0.66770
O585        O  0.61720629  0.17594767  0.45820576    -0.86060
C586        C  0.71774789  0.11764813  0.45482562     0.86170
C587        C  0.73841227  0.13115134  0.52989805     1.07740
H588        H  0.67977123  0.16239882  0.45039168     0.39540
O589        O  0.67156334  0.16178422  0.46904619    -1.08720
O590        O  0.62695070  0.13880696  0.50249115    -0.65370
Ni591      Ni  0.65430362  0.12538719  0.47593638     1.26350
O592        O  0.72222341  0.14047978  0.46832363    -0.65600
O593        O  0.62886513  0.13164672  0.44622585    -0.77890
C594        C  0.65001187  0.06429863  0.49061162     0.85550
O595        O  0.63870470  0.08710196  0.48106245    -0.65070
Ni596      Ni  0.64934260  0.19487797  0.47328847     1.27450
Ni597      Ni  0.69858737  0.15740230  0.49728406     1.26060
H598        H  0.67097663  0.12324726  0.52478365     0.40090
O599        O  0.70027303  0.80134248  0.50071165    -0.79860
O600        O  0.63940597  0.92332683  0.49315303    -0.64550
O601        O  0.68244889  0.85523839  0.47989315    -1.11150
C602        C  0.74069006  0.89759146  0.54771856     1.07030
O603        O  0.67798443  0.94780341  0.48742569    -0.77760
O604        O  0.72977956  0.92996080  0.48838285    -0.65340
Ni605      Ni  0.66666721  0.81841269  0.48482066     1.34870
C606        C  0.73383420  0.91139626  0.46987268     0.85760
O607        O  0.63399336  0.87790565  0.45910510    -0.78300
O608        O  0.63239102  0.83061047  0.46724832    -0.88570
C609        C  0.65176584  0.94714363  0.48909176     0.85340
O610        O  0.65215817  0.82541922  0.52162331    -0.66770
O611        O  0.72530741  0.91938857  0.54514592    -0.86060
C612        C  0.63786135  0.84652375  0.52944306     0.86170
C613        C  0.62389364  0.85338715  0.45517911     1.07740
H614        H  0.67935047  0.89109313  0.53297684     0.39540
O615        O  0.68696358  0.89543859  0.51450397    -1.08720
O616        O  0.72794989  0.88542039  0.47364729    -0.65370
Ni617      Ni  0.71136394  0.86517931  0.50507929     1.26350
O618        O  0.63698011  0.87004478  0.51574374    -0.65600
O619        O  0.73995995  0.87644309  0.53123027    -0.77890
C620        C  0.72593773  0.80773685  0.49691920     0.85550
O621        O  0.73376411  0.83349606  0.49483491    -0.65070
Ni622      Ni  0.70141049  0.93261104  0.51633655     1.27450
Ni623      Ni  0.65985037  0.88794681  0.48687771     1.26060
H624        H  0.68903791  0.85649055  0.46061424     0.40090
O625        O  0.70103972  0.00142801  0.17545882    -0.79860
O626        O  0.57410126  0.00370628  0.12703693    -0.64550
O627        O  0.64418565  0.01635140  0.16485675    -1.11150
C628        C  0.61309334  0.94929621  0.22743300     1.07030
O629        O  0.55033992  0.97872870  0.15974162    -0.77760
O630        O  0.57701707  0.01345609  0.19575940    -0.65340
Ni631      Ni  0.67805637  0.01529739  0.14376333     1.34870
C632        C  0.59651366  0.02539591  0.20913411     0.85760
O633        O  0.61581041  0.04105824  0.12172800    -0.78300
O634        O  0.66025034  0.03168353  0.11086409    -0.88570
C635        C  0.55174287  0.99162982  0.13601465     0.85340
O636        O  0.67042713  0.97787236  0.13042132    -0.66770
O637        O  0.59408521  0.96757365  0.22594873    -0.86060
C638        C  0.64904629  0.97130492  0.11601252     0.86170
C639        C  0.63722934  0.04436762  0.10620685     1.07740
H640        H  0.61012740  0.95887422  0.15974111     0.39540
O641        O  0.60726285  0.97637930  0.16958098    -1.08720
O642        O  0.61962384  0.01295415  0.21457243    -0.65370
Ni643      Ni  0.63985383  0.98612700  0.19083393     1.26350
O644        O  0.62623444  0.98498439  0.11731099    -0.65600
O645        O  0.63583254  0.95377727  0.21502820    -0.77890
C646        C  0.69628648  0.99942047  0.20205819     0.85550
O647        O  0.67173465  0.99652403  0.21141767    -0.65070
Ni648      Ni  0.57407263  0.97382604  0.19172074     1.27450
Ni649      Ni  0.61007601  0.00916650  0.14535264     1.26060
H650        H  0.64318456  0.03449832  0.17392083     0.40090
O651        O  0.42259280  0.01237074  0.08799828    -0.79860
O652        O  0.29761004  0.99770741  0.14481004    -0.64550
O653        O  0.37350844  0.01488309  0.11988657    -1.11150
C654        C  0.39162312  0.94217586  0.18428378     1.07030
O655        O  0.31494133  0.00761355  0.18614672    -0.77760
O656        O  0.36721731  0.01669955  0.19460907    -0.65340
Ni657      Ni  0.38249636  0.01495245  0.08092528     1.34870
C658        C  0.39046899  0.02257477  0.18344340     0.85760
O659        O  0.32080527  0.03605939  0.10609337    -0.78300
O660        O  0.34440007  0.01914884  0.07047603    -0.88570
C661        C  0.29440086  0.99981787  0.17158780     0.85340
O662        O  0.37619823  0.97512154  0.08356589    -0.66770
O663        O  0.37616313  0.95703547  0.20051274    -0.86060
C664        C  0.35253524  0.96351622  0.08908690     0.86170
C665        C  0.32898741  0.03797009  0.08074146     1.07740
H666        H  0.34280264  0.96010292  0.14912725     0.39540
O667        O  0.35039714  0.97846386  0.15360328    -1.08720
O668        O  0.40245867  0.00530870  0.16734275    -0.65370
Ni669      Ni  0.38688173  0.98141498  0.13906244     1.26350
O670        O  0.33249753  0.97657066  0.10178151    -0.65600
O671        O  0.39662134  0.94858205  0.15872873    -0.77890
C672        C  0.43621679  0.99695456  0.10540394     0.85550
O673        O  0.42397844  0.98223840  0.12431287    -0.65070
Ni674      Ni  0.34566228  0.98291245  0.19273989     1.27450
Ni675      Ni  0.33499179  0.00662358  0.13021898     1.26060
H676        H  0.37967639  0.03232019  0.12822288     0.40090
O677        O  0.47647763  0.19885322  0.28871237    -0.79860
O678        O  0.49107004  0.07639050  0.34541707    -0.64550
O679        O  0.50262209  0.14792168  0.30571770    -1.11150
C680        C  0.44901066  0.10177073  0.23628778     1.07030
O681        O  0.50273352  0.05487113  0.30671752    -0.77760
O682        O  0.50624640  0.07609359  0.25509463    -0.65340
Ni683      Ni  0.49374082  0.18294824  0.32250560     1.34870
C684        C  0.52280864  0.09693233  0.25276565     0.85760
O685        O  0.52130979  0.12390456  0.35505812    -0.78300
O686        O  0.51216851  0.17078319  0.35682768    -0.88570
C687        C  0.49766119  0.05371346  0.33283913     0.85340
O688        O  0.45818319  0.17177606  0.33743514    -0.66770
O689        O  0.45017011  0.08010078  0.25256194    -0.86060
C690        C  0.45261299  0.14926974  0.35146255     0.86170
C691        C  0.52424106  0.14822613  0.36587823     1.07740
H692        H  0.45361411  0.10696305  0.30221308     0.39540
O693        O  0.47269187  0.10493623  0.29604300    -1.08720
O694        O  0.51647915  0.12198872  0.25941975    -0.65370
Ni695      Ni  0.48222591  0.13766376  0.27329141     1.26350
O696        O  0.46633809  0.12645124  0.34897424    -0.65600
O697        O  0.46182945  0.12519172  0.24043596    -0.77890
C698        C  0.48589278  0.19676196  0.26359264     0.85550
O699        O  0.49202934  0.17254312  0.25372624    -0.65070
Ni700      Ni  0.47603028  0.06861205  0.28009171     1.27450
Ni701      Ni  0.49671730  0.11316895  0.32639798     1.26060
H702        H  0.52220335  0.14909907  0.30107344     0.40090
O703        O  0.48500487  0.93807651  0.30984537    -0.79860
O704        O  0.50084389  0.81383509  0.26370908    -0.64550
O705        O  0.48034259  0.88019651  0.30250686    -1.11150
C706        C  0.54229107  0.84918304  0.36963154     1.07030
O707        O  0.50883898  0.78402832  0.29947489    -0.77760
O708        O  0.47911739  0.81461774  0.34033894    -0.65340
Ni709      Ni  0.48104055  0.91328255  0.27882435     1.34870
C710        C  0.47028466  0.83613263  0.35357066     0.85760
O711        O  0.46059097  0.85068007  0.25767916    -0.78300
O712        O  0.47605585  0.89277579  0.24472892    -0.88570
C713        C  0.50672164  0.78945530  0.27306877     0.85340
O714        O  0.51997518  0.90871718  0.27676471    -0.66770
O715        O  0.52844706  0.82647541  0.36605732    -0.86060
C716        C  0.53157473  0.88750734  0.26562379     0.86170
C717        C  0.45937286  0.87226419  0.24192505     1.07740
H718        H  0.53717345  0.84360306  0.30177847     0.39540
O719        O  0.51884195  0.84232317  0.31017935    -1.08720
O720        O  0.48357738  0.85965482  0.35460297    -0.65370
Ni721      Ni  0.51024023  0.87702101  0.32877323     1.26350
O722        O  0.51807024  0.86517008  0.25948931    -0.65600
O723        O  0.53974964  0.87124563  0.35422217    -0.77890
C724        C  0.49452721  0.93676353  0.33470190     0.85550
O725        O  0.50335163  0.91367577  0.34610372    -0.65070
Ni726      Ni  0.51730956  0.80790069  0.33185980     1.27450
Ni727      Ni  0.49027349  0.84637201  0.28324439     1.26060
H728        H  0.46224227  0.87817432  0.31120959     0.40090
O729        O  0.53872066  0.17638055  0.95688410    -0.79860
O730        O  0.65663544  0.23913485  0.97502878    -0.64550
O731        O  0.59560315  0.19141092  0.95180971    -1.11150
C732        C  0.63003727  0.12972231  0.01971759     1.07030
O733        O  0.68688005  0.20403446  0.97442605    -0.77760
O734        O  0.66133918  0.15632334  0.95371061    -0.65340
Ni735      Ni  0.56009488  0.20808148  0.94434533     1.34870
C736        C  0.64137588  0.13983353  0.94763324     0.85760
O737        O  0.62133933  0.24302151  0.93253407    -0.78300
O738        O  0.57526192  0.24198661  0.92922201    -0.88570
C739        C  0.68166443  0.23043054  0.97568995     0.85340
O740        O  0.55857699  0.22252737  0.98092976    -0.66770
O741        O  0.65252212  0.13737241  0.00740353    -0.86060
C742        C  0.57677131  0.23434533  0.99602154     0.86170
C743        C  0.59878754  0.25210002  0.92252606     1.07740
H744        H  0.62941338  0.19762004  0.01004306     0.39540
O745        O  0.63149826  0.18916144  0.99175066    -1.08720
O746        O  0.61801080  0.13996447  0.96042487    -0.65370
Ni747      Ni  0.59937735  0.16634084  0.98433354     1.26350
O748        O  0.60238884  0.23735253  0.98888534    -0.65600
O749        O  0.60686559  0.14223739  0.01585222    -0.77890
C750        C  0.54164854  0.15263103  0.96910919     0.85550
O751        O  0.56512744  0.14435040  0.97871629    -0.65070
Ni752      Ni  0.66711236  0.17137716  0.99023877     1.27450
Ni753      Ni  0.62584440  0.21634460  0.96281025     1.26060
H754        H  0.60124022  0.18194355  0.93483571     0.40090
O755        O  0.42614905  0.16464804  0.99708817    -0.79860
O756        O  0.30464627  0.21435168  0.98027477    -0.64550
O757        O  0.36935677  0.17179762  0.99684129    -1.11150
C758        C  0.34577664  0.12008324  0.91858753     1.07030
O759        O  0.27717475  0.18063565  0.96414839    -0.77760
O760        O  0.30704100  0.13447406  0.98542927    -0.65340
Ni761      Ni  0.40098859  0.19456416  0.00480248     1.34870
C762        C  0.32834397  0.12055041  0.99341852     0.85760
O763        O  0.33790277  0.21185725  0.02387631    -0.78300
O764        O  0.38013706  0.22741921  0.01463528    -0.88570
C765        C  0.28091656  0.20577111  0.97301239     0.85340
O766        O  0.40025187  0.20544814  0.96649258    -0.66770
O767        O  0.32228228  0.12157077  0.93116525    -0.86060
C768        C  0.38036022  0.21938800  0.95561549     0.86170
C769        C  0.35822150  0.22757689  0.02945089     1.07740
H770        H  0.33763445  0.18577254  0.93822249     0.39540
O771        O  0.33545414  0.17324100  0.95442966    -1.08720
O772        O  0.35169419  0.12154513  0.98027173    -0.65370
Ni773      Ni  0.36962376  0.15317541  0.96102443     1.26350
O774        O  0.35679956  0.22222720  0.96778108    -0.65600
O775        O  0.36683017  0.13469151  0.92579087    -0.77890
C776        C  0.42727548  0.14353027  0.98099568     0.85550
O777        O  0.40623486  0.13522170  0.96658831    -0.65070
Ni778      Ni  0.30227538  0.15175051  0.94916841     1.27450
Ni779      Ni  0.33657932  0.19305881  0.98879045     1.26060
H780        H  0.36583452  0.15926352  0.01260685     0.40090
O781        O  0.50090555  0.37581138  0.05469717    -0.79860
O782        O  0.49498508  0.31487051  0.17993860    -0.64550
O783        O  0.50606167  0.34217647  0.10290319    -1.11150
C784        C  0.42984100  0.28028775  0.09170868     1.07030
O785        O  0.50331997  0.27410596  0.16026394    -0.77760
O786        O  0.50208608  0.26193451  0.10651785    -0.65340
Ni787      Ni  0.50803239  0.38155497  0.09473938     1.34870
C788        C  0.50774407  0.27421174  0.08327626     0.85760
O789        O  0.53159249  0.35266932  0.15457383    -0.78300
O790        O  0.51785391  0.39194978  0.13266360    -0.88570
C791        C  0.49898404  0.28805296  0.18236001     0.85340
O792        O  0.46975465  0.38266716  0.10504853    -0.66770
O793        O  0.44369829  0.26400531  0.10828498    -0.86060
C794        C  0.46040808  0.37727363  0.12991395     0.86170
C795        C  0.53388252  0.37903297  0.14974543     1.07740
H796        H  0.45403903  0.31511713  0.13702288     0.39540
O797        O  0.47119646  0.30930348  0.12813961    -1.08720
O798        O  0.49464720  0.29563559  0.07433262    -0.65370
Ni799      Ni  0.47205375  0.32397992  0.09090755     1.26350
O800        O  0.47346206  0.36153736  0.14814626    -0.65600
O801        O  0.43864830  0.30436018  0.08262183    -0.77890
C802        C  0.48596449  0.35868959  0.04069844     0.85550
O803        O  0.47193338  0.33916559  0.05297867    -0.65070
Ni804      Ni  0.47394946  0.26960411  0.13387384     1.27450
Ni805      Ni  0.50079583  0.33083206  0.14187962     1.26060
H806        H  0.52251906  0.33313647  0.09565350     0.40090
O807        O  0.49162144  0.27520839  0.78773902    -0.79860
O808        O  0.47635248  0.33696118  0.90475160    -0.64550
O809        O  0.47218960  0.31193982  0.82837611    -1.11150
C810        C  0.53309734  0.38442723  0.80900278     1.07030
O811        O  0.49786549  0.37855930  0.90133142    -0.77760
O812        O  0.46669466  0.38185276  0.85093773    -0.65340
Ni813      Ni  0.47640659  0.27188909  0.82487623     1.34870
C814        C  0.45931440  0.37847058  0.82535637     0.85760
O815        O  0.44268093  0.30430156  0.87607991    -0.78300
O816        O  0.45900762  0.26352441  0.86090337    -0.88570
C817        C  0.48661186  0.35875302  0.91614160     0.85340
O818        O  0.51314175  0.27437249  0.83958242    -0.66770
O819        O  0.51343703  0.39520955  0.82287397    -0.86060
C820        C  0.51881283  0.28459268  0.86336432     0.86170
C821        C  0.44071678  0.27779829  0.87399775     1.07740
H822        H  0.52416745  0.33855606  0.86057818     0.39540
O823        O  0.50673088  0.34552901  0.85343903    -1.08720
O824        O  0.47362747  0.36402862  0.80755499    -0.65370
Ni825      Ni  0.50200428  0.33472317  0.81455097     1.26350
O826        O  0.49967157  0.29514211  0.87849536    -0.65600
O827        O  0.53254649  0.35842740  0.80269818    -0.77890
C828        C  0.49613169  0.29481162  0.76958044     0.85550
O829        O  0.49794454  0.32107815  0.77609873    -0.65070
Ni830      Ni  0.50474926  0.38476170  0.86107490     1.27450
Ni831      Ni  0.47471233  0.32481652  0.86624880     1.26060
H832        H  0.45461467  0.31748196  0.82022228     0.40090
O833        O  0.17072141  0.29073401  0.96892546    -0.79860
O834        O  0.12818195  0.42270501  0.96584345    -0.64550
O835        O  0.16353715  0.34952211  0.95373907    -1.11150
C836        C  0.21935854  0.37686702  0.02481446     1.07030
O837        O  0.16070312  0.44435008  0.99162824    -0.77760
O838        O  0.19668139  0.41626088  0.95833213    -0.65340
Ni839      Ni  0.14173502  0.31574021  0.95386662     1.34870
C840        C  0.20700593  0.39487187  0.94618130     0.85760
O841        O  0.12335054  0.38059092  0.92698261    -0.78300
O842        O  0.11126231  0.33539149  0.93674122    -0.88570
C843        C  0.13770040  0.44449517  0.97869177     0.85340
O844        O  0.12728706  0.32334356  0.99053621    -0.66770
O845        O  0.22177362  0.39577420  0.00586119    -0.86060
C846        C  0.11374897  0.34547955  0.99707448     0.86170
C847        C  0.10884774  0.35843195  0.92258149     1.07740
H848        H  0.15584016  0.38323896  0.01121620     0.39540
O849        O  0.16700586  0.38606701  0.99377420    -1.08720
O850        O  0.21277120  0.37209001  0.96001635    -0.65370
Ni851      Ni  0.18702872  0.35187084  0.98515054     1.26350
O852        O  0.11549144  0.36893334  0.98331918    -0.65600
O853        O  0.20848661  0.35366388  0.01868735    -0.77890
C854        C  0.19668528  0.29438657  0.97305438     0.85550
O855        O  0.20682630  0.31888314  0.97579446    -0.65070
Ni856      Ni  0.19044481  0.41860753  0.99769601     1.27450
Ni857      Ni  0.14498723  0.38507332  0.96018692     1.26060
H858        H  0.17370923  0.35044634  0.93612001     0.40090
O859        O  0.19772366  0.70060723  0.96483527    -0.79860
O860        O  0.12789604  0.58520754  0.98591642    -0.64550
O861        O  0.17684220  0.65069432  0.99101078    -1.11150
C862        C  0.22593172  0.60157530  0.92017596     1.07030
O863        O  0.16537373  0.55920957  0.98605920    -0.77760
O864        O  0.21810094  0.57214477  0.97701751    -0.65340
Ni865      Ni  0.16320858  0.68753153  0.98315476     1.34870
C866        C  0.22395262  0.58908336  0.99655949     0.85760
O867        O  0.13089041  0.63344747  0.01966979    -0.78300
O868        O  0.12923258  0.67882140  0.00371474    -0.88570
C869        C  0.13924621  0.56067239  0.98565319     0.85340
O870        O  0.14621509  0.67734083  0.94784193    -0.66770
O871        O  0.20633647  0.58341890  0.92165161    -0.86060
C872        C  0.12733050  0.65838582  0.94603231     0.86170
C873        C  0.12353775  0.65937767  0.02205417     1.07740
H874        H  0.16550260  0.61489636  0.94014185     0.39540
O875        O  0.17455818  0.60957154  0.95755705    -1.08720
O876        O  0.21833366  0.61528796  0.99510612    -0.65370
Ni877      Ni  0.20274920  0.63708214  0.96437948     1.26350
O878        O  0.12579062  0.63738136  0.96316840    -0.65600
O879        O  0.22882400  0.62192842  0.93736822    -0.77890
C880        C  0.22278419  0.69279796  0.96990609     0.85550
O881        O  0.22870185  0.66658820  0.97250459    -0.65070
Ni882      Ni  0.18575129  0.57166102  0.95379761     1.27450
Ni883      Ni  0.15151391  0.61944170  0.98862842     1.26060
H884        H  0.18487804  0.65078645  0.00963781     0.40090
O885        O  0.31014659  0.48720855  0.18316601    -0.79860
O886        O  0.36501217  0.48735209  0.05773372    -0.64550
O887        O  0.32675436  0.50643984  0.12745357    -1.11150
C888        C  0.26441300  0.43694359  0.09559950     1.07030
O889        O  0.32482187  0.49209749  0.03654728    -0.77760
O890        O  0.27351525  0.49235036  0.05752409    -0.65340
Ni891      Ni  0.34351261  0.50267248  0.16349150     1.34870
C892        C  0.27125434  0.51304225  0.07396353     0.85760
O893        O  0.37503075  0.52415552  0.10072405    -0.78300
O894        O  0.37703312  0.52018075  0.14830277    -0.88570
C895        C  0.35086135  0.48883003  0.03491061     0.85340
O896        O  0.35857579  0.46550390  0.15772244    -0.66770
O897        O  0.27854601  0.43680150  0.07274302    -0.86060
C898        C  0.37175820  0.45635675  0.13633310     0.86170
C899        C  0.38569926  0.53014557  0.12445836     1.07740
H900        H  0.32583716  0.45081708  0.09610533     0.39540
O901        O  0.31866320  0.46918531  0.09062272    -1.08720
O902        O  0.27998260  0.51237769  0.09915691    -0.65370
Ni903      Ni  0.29631467  0.48196392  0.12114211     1.26350
O904        O  0.37047250  0.46802546  0.11187467    -0.65600
O905        O  0.26624205  0.45603499  0.11418561    -0.77890
C906        C  0.28439150  0.49229525  0.17816979     0.85550
O907        O  0.27602786  0.49544792  0.15293255    -0.65070
Ni908      Ni  0.30183161  0.46438981  0.05523454     1.27450
Ni909      Ni  0.34731027  0.49656451  0.09406877     1.26060
H910        H  0.32096370  0.52596052  0.12543098     0.40090
O911        O  0.32393978  0.48885835  0.91661595    -0.79860
O912        O  0.27325019  0.48713391  0.79876057    -0.64550
O913        O  0.31595840  0.46467244  0.86330576    -1.11150
C914        C  0.38147738  0.52750929  0.82660661     1.07030
O915        O  0.30800929  0.48639063  0.76780710    -0.77760
O916        O  0.35440092  0.46218234  0.79470085    -0.65340
Ni917      Ni  0.29866924  0.46323428  0.89964402     1.34870
C918        C  0.36912194  0.45455003  0.81570094     0.85760
O919        O  0.26409484  0.44905535  0.84008218    -0.78300
O920        O  0.27199998  0.43780883  0.88565740    -0.88570
C921        C  0.28194881  0.48821526  0.77341896     0.85340
O922        O  0.27525544  0.49524584  0.89531772    -0.66770
O923        O  0.37483844  0.51633964  0.80315825    -0.86060
C924        C  0.27224843  0.51264193  0.87496227     0.86170
C925        C  0.25918626  0.43466403  0.86257001     1.07740
H926        H  0.31646668  0.52104490  0.82534460     0.39540
O927        O  0.32301408  0.50177995  0.82393010    -1.08720
O928        O  0.36779186  0.46617917  0.83973615    -0.65370
Ni929      Ni  0.34359474  0.49294761  0.85763461     1.26350
O930        O  0.27601095  0.50626309  0.84950343    -0.65600
O931        O  0.36943079  0.52185628  0.84994375    -0.77890
C932        C  0.34987411  0.48562541  0.91682331     0.85550
O933        O  0.36289533  0.48405885  0.89331110    -0.65070
Ni934      Ni  0.34096234  0.49993134  0.78808379     1.27450
Ni935      Ni  0.29370686  0.47545704  0.83130214     1.26060
H936        H  0.32378442  0.44620659  0.85989579     0.40090
O937        O  0.02504181  0.56739382  0.10553574    -0.79860
O938        O  0.00820489  0.68670860  0.17122712    -0.64550
O939        O  0.02362288  0.61241702  0.14212735    -1.11150
C940        C  0.94666215  0.58513758  0.19336901     1.07030
O941        O  0.00432191  0.66766584  0.21462172    -0.77760
O942        O  0.01580307  0.61171990  0.21612159    -0.65340
Ni943      Ni  0.02945925  0.60832645  0.10281066     1.34870
C944        C  0.01915500  0.58747169  0.20569984     0.85760
O945        O  0.04841682  0.66573921  0.13630981    -0.78300
O946        O  0.03583894  0.64778319  0.09577836    -0.88570
C947        C  0.00777558  0.68911435  0.19813453     0.85340
O948        O  0.99099742  0.61573964  0.10015078    -0.66770
O949        O  0.95885948  0.59962645  0.21234636    -0.86060
C950        C  0.98008963  0.63970334  0.10583681     0.86170
C951        C  0.05154559  0.66350748  0.10990691     1.07740
H952        H  0.96755711  0.64320383  0.16547154     0.39540
O953        O  0.98425196  0.63391351  0.17197542    -1.08720
O954        O  0.00524974  0.57898985  0.18491299    -0.65370
Ni955      Ni  0.98773559  0.59852878  0.15417171     1.26350
O956        O  0.99107027  0.65764075  0.12286953    -0.65600
O957        O  0.95262518  0.58714261  0.16739905    -0.77890
C958        C  0.00782133  0.55200111  0.11940982     0.85550
O959        O  0.99034293  0.56248979  0.13637785    -0.65070
Ni960      Ni  0.98248677  0.63337431  0.21176122     1.27450
Ni961      Ni  0.01605902  0.65013215  0.15489193     1.26060
H962        H  0.03880084  0.60406638  0.15258085     0.40090
O963        O  0.98556183  0.27686089  0.15163076    -0.79860
O964        O  0.99623717  0.40997070  0.11034588    -0.64550
O965        O  0.00043754  0.33419976  0.14334620    -1.11150
C966        C  0.91835204  0.36733286  0.18886684     1.07030
O967        O  0.99392871  0.42222746  0.15459808    -0.77760
O968        O  0.97529587  0.39724144  0.20186804    -0.65340
Ni969      Ni  0.99962267  0.30149031  0.12078735     1.34870
C970        C  0.99326405  0.37822554  0.20638990     0.85760
O971        O  0.02999278  0.36391895  0.10238181    -0.78300
O972        O  0.01675174  0.32087115  0.08872862    -0.88570
C973        C  0.99839612  0.42923023  0.12907506     0.85340
O974        O  0.96337820  0.31194705  0.10781023    -0.66770
O975        O  0.92424653  0.39178027  0.17840969    -0.86060
C976        C  0.95770769  0.33488081  0.09429429     0.86170
C977        C  0.03244203  0.34270879  0.08636912     1.07740
H978        H  0.94893280  0.37234861  0.13467542     0.39540
O979        O  0.96492822  0.37391079  0.14651659    -1.08720
O980        O  0.99333431  0.35517068  0.19337309    -0.65370
Ni981      Ni  0.96831629  0.33958551  0.16679272     1.26350
O982        O  0.97331100  0.35710263  0.09469266    -0.65600
O983        O  0.93537565  0.34646149  0.18939221    -0.77890
C984        C  0.98035220  0.28100041  0.17775839     0.85550
O985        O  0.97342758  0.30506503  0.18683146    -0.65070
Ni986      Ni  0.95894613  0.40713700  0.16644470     1.27450
Ni987      Ni  0.99772827  0.37046741  0.12460753     1.26060
H988        H  0.01730482  0.33362261  0.15431213     0.40090
O989        O  0.06705935  0.50753071  0.34676227    -0.79860
O990        O  0.18681237  0.48826369  0.28297016    -0.64550
O991        O  0.11267602  0.50493572  0.31079840    -1.11150
C992        C  0.08495101  0.42717674  0.26145010     1.07030
O993        O  0.17012846  0.48108047  0.23980479    -0.77760
O994        O  0.11601795  0.49625423  0.23767173    -0.65340
Ni995      Ni  0.10722229  0.51290909  0.34950420     1.34870
C996        C  0.09194041  0.50114892  0.24742157     0.85760
O997        O  0.16505654  0.53039822  0.31492366    -0.78300
O998        O  0.14548376  0.52195841  0.35659002    -0.88570
C999        C  0.19031504  0.48669384  0.25613735     0.85340
O1000       O  0.11585406  0.47408222  0.35633197    -0.66770
O1001       O  0.10083791  0.43899949  0.24286626    -0.86060
C1002       C  0.14009289  0.46352468  0.35222666     0.86170
C1003       C  0.16219552  0.53583137  0.34085668     1.07740
H1004       H  0.14255562  0.44663318  0.29147599     0.39540
O1005       O  0.13412860  0.46352597  0.28356214    -1.08720
O1006       O  0.08168413  0.48681389  0.26774995    -0.65370
Ni1007     Ni  0.09812165  0.46864729  0.29981173     1.26350
O1008       O  0.15717553  0.47311809  0.33305074    -0.65600
O1009       O  0.08593387  0.43303752  0.28738109    -0.77890
C1010       C  0.05144657  0.49136270  0.33254188     0.85550
O1011       O  0.06141564  0.47345160  0.31564664    -0.65070
Ni1012     Ni  0.13514255  0.46103795  0.24354299     1.27450
Ni1013     Ni  0.15009871  0.49656530  0.29881108     1.26060
H1014       H  0.10536281  0.52041077  0.29952538     0.40090
O1015       O  0.78064979  0.49556077  0.29230046    -0.79860
O1016       O  0.91012394  0.49509187  0.33448173    -0.64550
O1017       O  0.83833811  0.50710809  0.29884234    -1.11150
C1018       C  0.86228529  0.41933347  0.25722162     1.07030
O1019       O  0.92779379  0.48610767  0.29263779    -0.77760
O1020       O  0.90067978  0.47316766  0.24554083    -0.65340
Ni1021     Ni  0.80552800  0.51086295  0.32098861     1.34870
C1022       C  0.88448220  0.49360226  0.23997262     0.85760
O1023       O  0.87005509  0.53579642  0.33735358    -0.78300
O1024       O  0.82562204  0.52935955  0.35086929    -0.88570
C1025       C  0.93139140  0.49248122  0.31821971     0.85340
O1026       O  0.81149373  0.47443214  0.33814015    -0.66770
O1027       O  0.88591937  0.42196322  0.26896695    -0.86060
C1028       C  0.83295533  0.46848663  0.35268265     0.86170
C1029       C  0.84940478  0.54134377  0.35322170     1.07740
H1030       H  0.86845300  0.45096512  0.31234957     0.39540
O1031       O  0.87298116  0.46616267  0.29919132    -1.08720
O1032       O  0.86044004  0.49567389  0.25056169    -0.65370
Ni1033     Ni  0.84053805  0.47327474  0.27753365     1.26350
O1034       O  0.85620779  0.48150383  0.34965434    -0.65600
O1035       O  0.84397186  0.43892512  0.25626959    -0.77890
C1036       C  0.78446905  0.49033049  0.26619965     0.85550
O1037       O  0.80793650  0.48242164  0.25668979    -0.65070
Ni1038     Ni  0.90588583  0.45426718  0.28102673     1.27450
Ni1039     Ni  0.87302269  0.50120554  0.31801497     1.26060
H1040       H  0.83977650  0.52381060  0.28686402     0.40090
O1041       O  0.17744266  0.99602173  0.52601934    -0.79860
O1042       O  0.23276435  0.98643935  0.63886738    -0.64550
O1043       O  0.18607236  0.96791094  0.57730443    -1.11150
C1044       C  0.12165783  0.02683342  0.61764768     1.07030
O1045       O  0.20006132  0.98941762  0.67197459    -0.77760
O1046       O  0.15460389  0.96220434  0.64753847    -0.65340
Ni1047     Ni  0.20106548  0.96692482  0.54039489     1.34870
C1048       C  0.13964760  0.95323009  0.62745605     0.85760
O1049       O  0.23695355  0.94850266  0.59781581    -0.78300
O1050       O  0.22500226  0.93795900  0.55320395    -0.88570
C1051       C  0.22566893  0.98924009  0.66444351     0.85340
O1052       O  0.22904869  0.99516321  0.54335787    -0.66770
O1053       O  0.12991076  0.01420615  0.64008322    -0.86060
C1054       C  0.23474000  0.01194635  0.56298698     0.86170
C1055       C  0.23819930  0.93307605  0.57597991     1.07740
H1056       H  0.18890887  0.02296612  0.61445237     0.39540
O1057       O  0.18183145  0.00384573  0.61658286    -1.08720
O1058       O  0.13694216  0.96658592  0.60384793    -0.65370
Ni1059     Ni  0.15899404  0.99564233  0.58441425     1.26350
O1060       O  0.22878736  0.00705958  0.58854483    -0.65600
O1061       O  0.13291807  0.02365691  0.59364127    -0.77890
C1062       C  0.15141588  0.99264663  0.52580843     0.85550
O1063       O  0.13864746  0.98820074  0.54930802    -0.65070
Ni1064     Ni  0.16553003  0.00061070  0.65323628     1.27450
Ni1065     Ni  0.20987648  0.97670658  0.60786406     1.26060
H1066       H  0.17831930  0.94930888  0.58107423     0.40090
O1067       O  0.17837122  0.00851210  0.40691001    -0.79860
O1068       O  0.22112978  0.98616160  0.28103039    -0.64550
O1069       O  0.18459180  0.00827642  0.34896227    -1.11150
C1070       C  0.12089382  0.93919381  0.32441667     1.07030
O1071       O  0.18304668  0.98760391  0.25515979    -0.77760
O1072       O  0.13856270  0.00564373  0.28840707    -0.65340
Ni1073     Ni  0.20870084  0.01079301  0.38063397     1.34870
C1074       C  0.12673751  0.01245019  0.31139260     0.85760
O1075       O  0.22844032  0.02881906  0.31624380    -0.78300
O1076       O  0.24148221  0.01450882  0.35779213    -0.88570
C1077       C  0.20954918  0.98662031  0.25712048     0.85340
O1078       O  0.21092866  0.97089197  0.37921957    -0.66770
O1079       O  0.12519112  0.95040587  0.30002113    -0.86060
C1080       C  0.22132707  0.95744427  0.35867445     0.86170
C1081       C  0.24245409  0.03270642  0.33804622     1.07740
H1082       H  0.18540797  0.95008682  0.31374887     0.39540
O1083       O  0.17678677  0.96854812  0.31306681    -1.08720
O1084       O  0.13131444  0.00023955  0.33504720    -0.65370
Ni1085     Ni  0.16010797  0.97588924  0.34918124     1.26350
O1086       O  0.22653928  0.96954976  0.33468070    -0.65600
O1087       O  0.13577156  0.94431299  0.34594939    -0.77890
C1088       C  0.15527007  0.99535471  0.40836848     0.85550
O1089       O  0.14519318  0.98192788  0.38738743    -0.65070
Ni1090     Ni  0.15468790  0.96982995  0.27995598     1.27450
Ni1091     Ni  0.20334163  0.99756658  0.31478488     1.26060
H1092       H  0.17484552  0.02595121  0.34613318     0.40090
O1093       O  0.33756283  0.04762003  0.44696874    -0.79860
O1094       O  0.27554920  0.16649239  0.46352126    -0.64550
O1095       O  0.32354281  0.10467563  0.44592523    -1.11150
C1096       C  0.37871514  0.13842512  0.51649975     1.07030
O1097       O  0.30880326  0.19856082  0.46828991    -0.77760
O1098       O  0.35633772  0.16995136  0.44772172    -0.65340
Ni1099     Ni  0.30480587  0.06947436  0.44088854     1.34870
C1100       C  0.37265212  0.14932911  0.44265570     0.85760
O1101       O  0.27806213  0.13115957  0.42064083    -0.78300
O1102       O  0.27054314  0.08781093  0.43363211    -0.88570
C1103       C  0.28298867  0.19211273  0.46554922     0.85340
O1104       O  0.29771605  0.07030689  0.47990762    -0.66770
O1105       O  0.37323316  0.16146986  0.50293506    -0.86060
C1106       C  0.28279693  0.08875925  0.49195836     0.86170
C1107       C  0.27004071  0.10672581  0.41469908     1.07740
H1108       H  0.31200692  0.14006027  0.50316336     0.39540
O1109       O  0.32223084  0.14164923  0.48559076    -1.08720
O1110       O  0.37282600  0.12659218  0.45769747    -0.65370
Ni1111     Ni  0.34425789  0.10821304  0.48024824     1.26350
O1112       O  0.27602788  0.11234522  0.47986787    -0.65600
O1113       O  0.36498917  0.11552167  0.51332030    -0.77890
C1114       C  0.35822461  0.04925146  0.46339134     0.85550
O1115       O  0.36418017  0.07192525  0.47683699    -0.65070
Ni1116     Ni  0.34070133  0.17738101  0.48433588     1.27450
Ni1117     Ni  0.29914658  0.13591890  0.45430814     1.26060
H1118       H  0.33453619  0.10907464  0.42929624     0.40090
O1119       O  0.32444792  0.78087734  0.46409383    -0.79860
O1120       O  0.37656099  0.90893660  0.47026629    -0.64550
O1121       O  0.33693338  0.83713445  0.48151052    -1.11150
C1122       C  0.27502012  0.88008271  0.41624622     1.07030
O1123       O  0.33745034  0.93162377  0.47667175    -0.77760
O1124       O  0.29039445  0.90678167  0.48269007    -0.65340
Ni1125     Ni  0.35658536  0.80239109  0.47635636     1.34870
C1126       C  0.28545778  0.88393593  0.49611813     0.85760
O1127       O  0.38270202  0.86191893  0.50503582    -0.78300
O1128       O  0.39082667  0.81804725  0.49004602    -0.88570
C1129       C  0.36346865  0.93222956  0.47362180     0.85340
O1130       O  0.36626121  0.81305833  0.43881964    -0.66770
O1131       O  0.28500960  0.90341731  0.42456285    -0.86060
C1132       C  0.38101366  0.83467191  0.43244656     0.86170
C1133       C  0.39516681  0.83825333  0.50680554     1.07740
H1134       H  0.33871867  0.87924177  0.42956551     0.39540
O1135       O  0.33035525  0.88002570  0.44811008    -1.08720
O1136       O  0.28780175  0.85963538  0.48559723    -0.65370
Ni1137     Ni  0.30887760  0.84579679  0.45436447     1.26350
O1138       O  0.38167067  0.85711242  0.44714596    -0.65600
O1139       O  0.28119784  0.85584520  0.42670157    -0.77890
C1140       C  0.29845419  0.78586878  0.46335519     0.85550
O1141       O  0.28898842  0.81099007  0.46135224    -0.65070
Ni1142     Ni  0.31202011  0.91579493  0.45048403     1.27450
Ni1143     Ni  0.35744501  0.87212796  0.47604120     1.26060
H1144       H  0.32939209  0.83660503  0.50044964     0.40090
O1145       O  0.99798027  0.19369541  0.67074673    -0.79860
O1146       O  0.00184500  0.12923108  0.55188737    -0.64550
O1147       O  0.01548211  0.17570202  0.61683997    -1.11150
C1148       C  0.93590802  0.22321513  0.58254359     1.07030
O1149       O  0.99383922  0.16740225  0.52543536    -0.77760
O1150       O  0.98508282  0.22016811  0.54352885    -0.65340
Ni1151     Ni  0.01374763  0.15964847  0.65369264     1.34870
C1152       C  0.00759038  0.22676956  0.55570747     0.85760
O1153       O  0.03959673  0.12888744  0.59422210    -0.78300
O1154       O  0.03170552  0.12523658  0.64104731    -0.88570
C1155       C  0.99991745  0.14132273  0.52757240     0.85340
O1156       O  0.97740386  0.14323838  0.64849058    -0.66770
O1157       O  0.93464430  0.20373323  0.56436456    -0.86060
C1158       C  0.97171352  0.12525349  0.62962420     0.86170
C1159       C  0.04331687  0.11698674  0.61821122     1.07740
H1160       H  0.96053784  0.16407199  0.58955840     0.39540
O1161       O  0.97639522  0.17394613  0.58149975    -1.08720
O1162       O  0.01213725  0.21991588  0.58141767    -0.65370
Ni1163     Ni  0.98666410  0.20161951  0.60813097     1.26350
O1164       O  0.98538236  0.12408846  0.60653374    -0.65600
O1165       O  0.95680444  0.22708240  0.59854154    -0.77890
C1166       C  0.99798371  0.21995113  0.66313905     0.85550
O1167       O  0.99782331  0.22721366  0.63705224    -0.65070
Ni1168     Ni  0.96444246  0.18556875  0.54575168     1.27450
Ni1169     Ni  0.00827382  0.15118206  0.58593932     1.26060
H1170       H  0.03348609  0.18458523  0.61422559     0.40090
O1171       O  0.01156141  0.15701843  0.40763695    -0.79860
O1172       O  0.99961987  0.20313617  0.29058541    -0.64550
O1173       O  0.98195298  0.16193085  0.35785881    -1.11150
C1174       C  0.03953670  0.09421799  0.31838903     1.07030
O1175       O  0.99010813  0.16739754  0.26257971    -0.77760
O1176       O  0.97195233  0.11979835  0.29287535    -0.65340
Ni1177     Ni  0.98288985  0.18049960  0.39285238     1.34870
C1178       C  0.96482191  0.10770445  0.31602353     0.85760
O1179       O  0.96745064  0.21507404  0.33444726    -0.78300
O1180       O  0.95484702  0.20503627  0.37942206    -0.88570
C1181       C  0.99390734  0.19397970  0.26634705     0.85340
O1182       O  0.01116864  0.20768501  0.38461043    -0.66770
O1183       O  0.02642039  0.10094922  0.29578633    -0.86060
C1184       C  0.02887367  0.20760384  0.36475497     0.86170
C1185       C  0.95301041  0.21937686  0.35654102     1.07740
H1186       H  0.03313504  0.15873052  0.31521571     0.39540
O1187       O  0.01390715  0.15269656  0.31610801    -1.08720
O1188       O  0.97903653  0.10883505  0.33856656    -0.65370
Ni1189     Ni  0.00843214  0.13299002  0.35151512     1.26350
O1190       O  0.02306346  0.19990108  0.34016850    -0.65600
O1191       O  0.03531838  0.10552136  0.34225822    -0.77890
C1192       C  0.00828381  0.13071004  0.41102854     0.85550
O1193       O  0.00340221  0.11565344  0.38940140    -0.65070
Ni1194     Ni  0.00745282  0.13443185  0.28151164     1.27450
Ni1195     Ni  0.99053652  0.18356265  0.32461018     1.26060
H1196       H  0.96336943  0.15442512  0.35584956     0.40090
O1197       O  0.19837134  0.30386832  0.45702636    -0.79860
O1198       O  0.07715651  0.35993338  0.46148342    -0.64550
O1199       O  0.14506376  0.31941800  0.47635367    -1.11150
C1200       C  0.11551609  0.26308529  0.40133196     1.07030
O1201       O  0.05357876  0.32199249  0.44757899    -0.77760
O1202       O  0.07633636  0.27053619  0.44699639    -0.65340
Ni1203     Ni  0.18002133  0.33716462  0.47339905     1.34870
C1204       C  0.08645819  0.26834872  0.47169725     0.85760
O1205       O  0.11889087  0.36371751  0.49973261    -0.78300
O1206       O  0.16496972  0.37003157  0.49224169    -0.88570
C1207       C  0.05421409  0.34673413  0.45752666     0.85340
O1208       O  0.17338219  0.35481864  0.43683431    -0.66770
O1209       O  0.10048748  0.28427690  0.39516553    -0.86060
C1210       C  0.15325417  0.37176958  0.43201902     0.86170
C1211       C  0.14183073  0.37658343  0.50419492     1.07740
H1212       H  0.11947935  0.32748079  0.42051791     0.39540
O1213       O  0.11101743  0.31749327  0.43632484    -1.08720
O1214       O  0.11174336  0.27510668  0.47657127    -0.65370
Ni1215     Ni  0.13838274  0.29136888  0.44973844     1.26350
O1216       O  0.13018341  0.36983022  0.44524946    -0.65600
O1217       O  0.13059609  0.26214979  0.42323426    -0.77890
C1218       C  0.19315329  0.27733107  0.46134298     0.85550
O1219       O  0.16804245  0.26867131  0.46411355    -0.65070
Ni1220     Ni  0.07786859  0.30306203  0.42199165     1.27450
Ni1221     Ni  0.11262013  0.34091051  0.46827853     1.26060
H1222       H  0.14342784  0.31141930  0.49520493     0.40090
O1223       O  0.92162556  0.38380746  0.46842285    -0.79860
O1224       O  0.79637319  0.32695526  0.47749307    -0.64550
O1225       O  0.87260195  0.35439305  0.48796205    -1.11150
C1226       C  0.88965313  0.27886353  0.42598436     1.07030
O1227       O  0.81457607  0.28677788  0.49103955    -0.77760
O1228       O  0.86491829  0.26602008  0.49166032    -0.65340
Ni1229     Ni  0.88210224  0.39135619  0.47502979     1.34870
C1230       C  0.88102399  0.28088632  0.50640675     0.85760
O1231       O  0.82099520  0.37122321  0.50724712    -0.78300
O1232       O  0.84440168  0.40278395  0.48215337    -0.88570
C1233       C  0.79332493  0.30057392  0.48365397     0.85340
O1234       O  0.87229186  0.37696156  0.43928969    -0.66770
O1235       O  0.86597623  0.26829913  0.43278854    -0.86060
C1236       C  0.84682417  0.37863164  0.43277578     0.86170
C1237       C  0.83094524  0.39619687  0.50429357     1.07740
H1238       H  0.84620247  0.32095871  0.43821949     0.39540
O1239       O  0.85038537  0.31603401  0.45757682    -1.08720
O1240       O  0.89098202  0.30407422  0.49757177    -0.65370
Ni1241     Ni  0.88793972  0.32628216  0.46432175     1.26350
O1242       O  0.82798122  0.36709001  0.44850905    -0.65600
O1243       O  0.90184953  0.29788377  0.44013475    -0.77890
C1244       C  0.93650245  0.36148997  0.47004318     0.85550
O1245       O  0.92565742  0.33696114  0.47138749    -0.65070
Ni1246     Ni  0.84032075  0.27743428  0.46220344     1.27450
Ni1247     Ni  0.83401679  0.34268037  0.48200499     1.26060
H1248       H  0.87771673  0.35198911  0.50753493     0.40090
C1249       C  0.98225530  0.37770235  0.44806005     0.24630
C1250       C  0.96760352  0.36362577  0.47007316    -0.23480
C1251       C  0.98302541  0.34871743  0.49062972     0.19530
C1252       C  0.01209906  0.34644520  0.48834475     0.24570
C1253       C  0.02658841  0.35866748  0.46525506    -0.23430
C1254       C  0.01142155  0.37493228  0.44548009     0.19470
F1255       F  0.02449677  0.38604502  0.42233069    -0.13380
F1256       F  0.96810465  0.39198500  0.42764387    -0.15750
F1257       F  0.02595850  0.33035510  0.50763402    -0.15750
F1258       F  0.96976089  0.33529097  0.51243524    -0.13380
C1259       C  0.06910401  0.20751069  0.39713061     0.24630
C1260       C  0.05766769  0.21536426  0.37091389    -0.23480
C1261       C  0.07456080  0.22929518  0.35068593     0.19530
C1262       C  0.10044426  0.23989437  0.35864028     0.24570
C1263       C  0.10884499  0.23704285  0.38685871    -0.23430
C1264       C  0.09546422  0.21692068  0.40435896     0.19470
F1265       F  0.10448637  0.21189740  0.43108451    -0.13380
F1266       F  0.05416439  0.19238545  0.41657866    -0.15750
F1267       F  0.11447964  0.25768232  0.34074271    -0.15750
F1268       F  0.06490169  0.23530827  0.32442335    -0.13380
C1269       C  0.93034087  0.27953536  0.39256934     0.24630
C1270       C  0.90371773  0.26900885  0.40022275    -0.23480
C1271       C  0.89077771  0.24919735  0.38260672     0.19530
C1272       C  0.90606233  0.23651433  0.36125646     0.24570
C1273       C  0.93427017  0.24318172  0.35779280    -0.23430
C1274       C  0.94526414  0.26695851  0.37095591     0.19470
F1275       F  0.97241867  0.27418536  0.36694595    -0.13380
F1276       F  0.94307925  0.30021594  0.40736448    -0.15750
F1277       F  0.89487862  0.21428492  0.34744430    -0.15750
F1278       F  0.86418149  0.24041254  0.38725347    -0.13380
C1279       C  0.05766262  0.23684069  0.54127034     0.24630
C1280       C  0.02889751  0.24178462  0.53801287    -0.23480
C1281       C  0.01998177  0.25693823  0.51397688     0.19530
C1282       C  0.03861476  0.26455971  0.49257268     0.24570
C1283       C  0.06731927  0.25891105  0.49503111    -0.23430
C1284       C  0.07677855  0.24575437  0.52013140     0.19470
F1285       F  0.10423751  0.24016487  0.52358389    -0.13380
F1286       F  0.06711286  0.22195447  0.56399782    -0.15750
F1287       F  0.02806242  0.27735193  0.46917832    -0.15750
F1288       F  0.99269872  0.26355101  0.51053667    -0.13380
C1289       C  0.92274727  0.27159842  0.57283029     0.24630
C1290       C  0.91390152  0.24431395  0.58076814    -0.23480
C1291       C  0.88790887  0.23467236  0.57146707     0.19530
C1292       C  0.87592907  0.24749551  0.54783400     0.24570
C1293       C  0.88912023  0.27103673  0.53486086    -0.23430
C1294       C  0.91076684  0.28477080  0.54942137     0.19470
F1295       F  0.92233573  0.30932756  0.53954546    -0.13380
F1296       F  0.94659173  0.28255531  0.58342696    -0.15750
F1297       F  0.85298197  0.23548343  0.53644785    -0.15750
F1298       F  0.87763927  0.20942762  0.58110755    -0.13380
C1299       C  0.98291960  0.11565767  0.48493663     0.24630
C1300       C  0.00537795  0.12641229  0.50055589    -0.23480
C1301       C  0.03078720  0.13122828  0.48638384     0.19530
C1302       C  0.03298373  0.12790749  0.45701302     0.24570
C1303       C  0.00974748  0.11995499  0.44085587    -0.23430
C1304       C  0.98509679  0.11237403  0.45541902     0.19470
F1305       F  0.96198030  0.10552039  0.44069253    -0.13380
F1306       F  0.95784870  0.11149165  0.49772604    -0.15750
F1307       F  0.05698582  0.13590824  0.44381004    -0.15750
F1308       F  0.05262854  0.14240596  0.50046218    -0.13380
C1309       C  0.26651896  0.24385859  0.46272728     0.24630
C1310       C  0.26049689  0.21453488  0.46426900    -0.23480
C1311       C  0.23207981  0.20644560  0.46467955     0.19530
C1312       C  0.21069972  0.22662444  0.46360055     0.24570
C1313       C  0.21657587  0.25594084  0.46205673    -0.23430
C1314       C  0.24495061  0.26420254  0.46159376     0.19470
F1315       F  0.25203088  0.29206927  0.46026658    -0.13380
F1316       F  0.29331789  0.25302860  0.46219393    -0.15750
F1317       F  0.18401347  0.21706396  0.46404409    -0.15750
F1318       F  0.22454206  0.17870000  0.46642505    -0.13380
C1319       C  0.38024904  0.00484710  0.44492852     0.24630
C1320       C  0.37330403  0.02174367  0.46822820    -0.23480
C1321       C  0.37135668  0.00815651  0.49488365     0.19530
C1322       C  0.37261031  0.97829876  0.49749106     0.24570
C1323       C  0.37648617  0.96118442  0.47364875    -0.23430
C1324       C  0.38202303  0.97503301  0.44764534     0.19470
F1325       F  0.38519274  0.95952093  0.42402223    -0.13380
F1326       F  0.38211408  0.01696345  0.41879595    -0.15750
F1327       F  0.36650775  0.96589806  0.52285370    -0.15750
F1328       F  0.36408805  0.02333692  0.51781808    -0.13380
C1329       C  0.28827127  0.07995794  0.37522814     0.24630
C1330       C  0.26769745  0.09817915  0.38555364    -0.23480
C1331       C  0.24242297  0.10103000  0.37140914     0.19530
C1332       C  0.23602476  0.08223692  0.34997637     0.24570
C1333       C  0.25462200  0.06020767  0.34374819    -0.23430
C1334       C  0.28163941  0.06077101  0.35443304     0.19470
F1335       F  0.29986350  0.03981192  0.34827104    -0.13380
F1336       F  0.31326881  0.07776699  0.38823845    -0.15750
F1337       F  0.20983251  0.08209653  0.33939860    -0.15750
F1338       F  0.22259680  0.11892063  0.38103428    -0.13380
C1339       C  0.21501089  0.91211274  0.38557995     0.24630
C1340       C  0.22936036  0.92777044  0.36440363    -0.23480
C1341       C  0.25431675  0.91700823  0.35355382     0.19530
C1342       C  0.26731236  0.89436459  0.36754235     0.24570
C1343       C  0.25574003  0.88312031  0.39272756    -0.23430
C1344       C  0.22821655  0.88974769  0.39968300     0.19470
F1345       F  0.21634902  0.87853370  0.42345619    -0.13380
F1346       F  0.18972584  0.92073233  0.39502144    -0.15750
F1347       F  0.29376626  0.88760088  0.36008867    -0.15750
F1348       F  0.26816693  0.93092958  0.33241232    -0.13380
C1349       C  0.10805496  0.05745230  0.32930159     0.24630
C1350       C  0.10567126  0.03461382  0.31100496    -0.23480
C1351       C  0.08138972  0.03114637  0.29515836     0.19530
C1352       C  0.05946706  0.05026155  0.29784227     0.24570
C1353       C  0.06169023  0.07301754  0.31642587    -0.23430
C1354       C  0.08631028  0.07665135  0.33188145     0.19470
F1355       F  0.08964589  0.09921821  0.34893721    -0.13380
F1356       F  0.13152848  0.06119245  0.34459312    -0.15750
F1357       F  0.03579178  0.04604977  0.28299584    -0.15750
F1358       F  0.07840055  0.00847681  0.27819887    -0.13380
C1359       C  0.23021734  0.05908877  0.54078666     0.24630
C1360       C  0.24707878  0.03913740  0.55482749    -0.23480
C1361       C  0.27593091  0.04269039  0.55492349     0.19530
C1362       C  0.28803971  0.06344725  0.53744753     0.24570
C1363       C  0.27123171  0.08008569  0.51942009    -0.23430
C1364       C  0.24230760  0.07974327  0.52315112     0.19470
F1365       F  0.22573638  0.09613292  0.50653753    -0.13380
F1366       F  0.20207928  0.05630955  0.54144747    -0.15750
F1367       F  0.31620500  0.06456192  0.53504067    -0.15750
F1368       F  0.29235258  0.02395498  0.56904191    -0.13380
C1369       C  0.24446862  0.88428281  0.56342531     0.24630
C1370       C  0.25666880  0.90873745  0.57485487    -0.23480
C1371       C  0.28401160  0.91563865  0.56726463     0.19530
C1372       C  0.29474678  0.90507057  0.54225523     0.24570
C1373       C  0.27858517  0.88654581  0.52603506    -0.23430
C1374       C  0.25487672  0.87385335  0.53804898     0.19470
F1375       F  0.23986790  0.85460648  0.52354947    -0.13380
F1376       F  0.21876080  0.87587235  0.57227767    -0.15750
F1377       F  0.31940227  0.91536177  0.53228387    -0.15750
F1378       F  0.29716941  0.93764673  0.57963714    -0.13380
C1379       C  0.08069630  0.05098511  0.59671425     0.24630
C1380       C  0.09850704  0.04670466  0.61972769    -0.23480
C1381       C  0.09610343  0.06395254  0.64347562     0.19530
C1382       C  0.07745049  0.08643056  0.64336729     0.24570
C1383       C  0.06102707  0.09189131  0.61952645    -0.23430
C1384       C  0.06202966  0.07342240  0.59662538     0.19470
F1385       F  0.04507013  0.07719161  0.57407417    -0.13380
F1386       F  0.08174094  0.03376392  0.57409318    -0.15750
F1387       F  0.07673067  0.10385532  0.66583981    -0.15750
F1388       F  0.11320437  0.06040988  0.66594251    -0.13380
C1389       C  0.13889547  0.01966318  0.48211275     0.24630
C1390       C  0.13814452  0.99376741  0.49734429    -0.23480
C1391       C  0.13588711  0.96862934  0.48181366     0.19530
C1392       C  0.13741222  0.96924355  0.45197570     0.24570
C1393       C  0.14152889  0.99502747  0.43697966    -0.23430
C1394       C  0.14057317  0.02029965  0.45243135     0.19470
F1395       F  0.14426028  0.04566336  0.43890798    -0.13380
F1396       F  0.14158393  0.04433829  0.49615289    -0.15750
F1397       F  0.13864052  0.94436163  0.43811486    -0.15750
F1398       F  0.13595043  0.94317206  0.49561291    -0.13380
C1399       C  0.81725795  0.42068934  0.37122951     0.24630
C1400       C  0.83170721  0.44642678  0.37471415    -0.23480
C1401       C  0.84820991  0.45016519  0.39858675     0.19530
C1402       C  0.85248113  0.42792778  0.41723312     0.24570
C1403       C  0.83960739  0.40154684  0.41308549    -0.23430
C1404       C  0.82103222  0.39824404  0.39068148     0.19470
F1405       F  0.80799811  0.37306722  0.38678888    -0.13380
F1406       F  0.80099287  0.41676002  0.34833217    -0.15750
F1407       F  0.86989218  0.43220231  0.43921437    -0.15750
F1408       F  0.86112166  0.47527804  0.40346419    -0.13380
C1409       C  0.16204276  0.41594447  0.36437779     0.24630
C1410       C  0.14880982  0.44112632  0.37259950    -0.23480
C1411       C  0.14146334  0.44433298  0.40108663     0.19530
C1412       C  0.14501608  0.42221183  0.42045918     0.24570
C1413       C  0.15595500  0.39609787  0.41199737    -0.23430
C1414       C  0.16554397  0.39341499  0.38404670     0.19470
F1415       F  0.17641845  0.36852556  0.37537043    -0.13380
F1416       F  0.16980680  0.41245688  0.33710237    -0.15750
F1417       F  0.13667303  0.42599632  0.44756833    -0.15750
F1418       F  0.12998239  0.46884761  0.41014156    -0.13380
C1419       C  0.97342779  0.47997493  0.34860015     0.24630
C1420       C  0.96102666  0.49700255  0.32737547    -0.23480
C1421       C  0.97876169  0.51408765  0.31031036     0.19530
C1422       C  0.00785828  0.51331720  0.31345385     0.24570
C1423       C  0.02038220  0.49507236  0.33338468    -0.23430
C1424       C  0.00280532  0.47885952  0.35142344     0.19470
F1425       F  0.01408809  0.46099410  0.37091836    -0.13380
F1426       F  0.95728291  0.46276409  0.36514471    -0.15750
F1427       F  0.02401522  0.52957000  0.29597078    -0.15750
F1428       F  0.96787955  0.53072406  0.28950739    -0.13380
C1429       C  0.01256491  0.40040462  0.24933167     0.24630
C1430       C  0.01661413  0.38443901  0.22502980    -0.23480
C1431       C  0.04385307  0.37879075  0.21561507     0.19530
C1432       C  0.06656171  0.39117911  0.22878643     0.24570
C1433       C  0.06238528  0.40878658  0.25189541    -0.23430
C1434       C  0.03534940  0.41223051  0.26294299     0.19470
F1435       F  0.03064860  0.42930147  0.28520274    -0.13380
F1436       F  0.98647814  0.40590519  0.25888508    -0.15750
F1437       F  0.09247945  0.38735449  0.21794762    -0.15750
F1438       F  0.04838938  0.36375978  0.19188293    -0.13380
C1439       C  0.86952026  0.38232471  0.19312898     0.24630
C1440       C  0.89122638  0.36493367  0.20311041    -0.23480
C1441       C  0.89048468  0.35529829  0.23123038     0.19530
C1442       C  0.87341227  0.36922867  0.25041212     0.24570
C1443       C  0.85841412  0.39326058  0.24125081    -0.23430
C1444       C  0.85290883  0.39663522  0.21240122     0.19470
F1445       F  0.83673808  0.41829397  0.20292176    -0.13380
F1446       F  0.86840467  0.39001261  0.16541477    -0.15750
F1447       F  0.87689484  0.36399514  0.27841997    -0.15750
F1448       F  0.91010031  0.33710579  0.24114323    -0.13380
C1449       C  0.99439088  0.26471452  0.22595992     0.24630
C1450       C  0.98381162  0.25775384  0.19933140    -0.23480
C1451       C  0.97748381  0.22912852  0.19422556     0.19530
C1452       C  0.98076924  0.20819029  0.21567920     0.24570
C1453       C  0.99084745  0.21539745  0.24261261    -0.23430
C1454       C  0.99794100  0.24406207  0.24708089     0.19470
F1455       F  0.00872093  0.25249411  0.27198465    -0.13380
F1456       F  0.00217884  0.29175595  0.23151141    -0.15750
F1457       F  0.97374130  0.18099492  0.21010784    -0.15750
F1458       F  0.96744280  0.22150829  0.16877446    -0.13380
C1459       C  0.08509452  0.55014469  0.22717857     0.24630
C1460       C  0.07424905  0.52345929  0.23528461    -0.23480
C1461       C  0.04531649  0.51889514  0.23481929     0.19530
C1462       C  0.02752482  0.54057004  0.22671304     0.24570
C1463       C  0.03822110  0.56710176  0.21849757    -0.23430
C1464       C  0.06705359  0.57197040  0.21880380     0.19470
F1465       F  0.07766214  0.59742416  0.21021096    -0.13380
F1466       F  0.11289349  0.55523662  0.22803062    -0.15750
F1467       F  0.99967159  0.53551055  0.22633098    -0.15750
F1468       F  0.03418033  0.49324457  0.24206575    -0.13380
C1469       C  0.90757003  0.56762752  0.22330634     0.24630
C1470       C  0.92701033  0.56294549  0.20188290    -0.23480
C1471       C  0.92935443  0.53589255  0.19003593     0.19530
C1472       C  0.91378621  0.51328726  0.20098469     0.24570
C1473       C  0.89530227  0.51763983  0.22339847    -0.23430
C1474       C  0.89152557  0.54518094  0.23380427     0.19470
F1475       F  0.87432109  0.54994630  0.25599877    -0.13380
F1476       F  0.90490534  0.59365245  0.23478108    -0.15750
F1477       F  0.91782523  0.48691709  0.19075327    -0.15750
F1478       F  0.94835436  0.53079960  0.16944360    -0.13380
C1479       C  0.01253134  0.47686294  0.14690240     0.24630
C1480       C  0.00552603  0.46002820  0.12350144    -0.23480
C1481       C  0.00269725  0.47399208  0.09703335     0.19530
C1482       C  0.00485833  0.50402235  0.09472482     0.24570
C1483       C  0.00947508  0.52041690  0.11888881    -0.23430
C1484       C  0.01398247  0.50628425  0.14461286     0.19470
F1485       F  0.01940360  0.52124622  0.16810671    -0.13380
F1486       F  0.01726007  0.46504991  0.17277173    -0.15750
F1487       F  0.00103284  0.51705902  0.06931975    -0.15750
F1488       F  0.99669094  0.45888213  0.07377229    -0.13380
C1489       C  0.23966173  0.51158714  0.19813910     0.24630
C1490       C  0.26302564  0.49391111  0.20165609    -0.23480
C1491       C  0.26427546  0.47704078  0.22661955     0.19530
C1492       C  0.24173200  0.47628683  0.24619162     0.24570
C1493       C  0.21763734  0.49265958  0.24142280    -0.23430
C1494       C  0.21752671  0.51099688  0.21761213     0.19470
F1495       F  0.19502906  0.52757080  0.21237151    -0.13380
F1496       F  0.23781396  0.52918395  0.17524903    -0.15750
F1497       F  0.24262389  0.45801562  0.26858986    -0.15750
F1498       F  0.28640460  0.45981920  0.23116229    -0.13380
C1499       C  0.37298407  0.50674098  0.95953713     0.24630
C1500       C  0.36268407  0.48280475  0.94546192    -0.23480
C1501       C  0.35469351  0.45905495  0.96208688     0.19530
C1502       C  0.35456560  0.45999073  0.99170705     0.24570
C1503       C  0.36255078  0.48466478  0.00587570    -0.23430
C1504       C  0.37294038  0.50765292  0.98944232     0.19470
F1505       F  0.38021638  0.53208405  0.00217830    -0.13380
F1506       F  0.38013674  0.53038264  0.94441582    -0.15750
F1507       F  0.34330469  0.43783520  0.00655117    -0.15750
F1508       F  0.34342942  0.43607635  0.94955191    -0.13380
C1509       C  0.21905015  0.56158828  0.04118629     0.24630
C1510       C  0.23630759  0.57689518  0.02222096    -0.23480
C1511       C  0.26523473  0.57539515  0.02507794     0.19530
C1512       C  0.27678916  0.55664758  0.04494800     0.24570
C1513       C  0.25947068  0.53911701  0.06185850    -0.23430
C1514       C  0.23058590  0.54258217  0.06078257     0.19470
F1515       F  0.21357642  0.52574883  0.07683155    -0.13380
F1516       F  0.19095200  0.56332388  0.03913828    -0.15750
F1517       F  0.30485028  0.55353285  0.04576775    -0.15750
F1518       F  0.28217333  0.59010692  0.00701738    -0.13380
C1519       C  0.23952277  0.58514286  0.87392397     0.24630
C1520       C  0.24803374  0.59451824  0.90051273    -0.23480
C1521       C  0.27074602  0.58140911  0.91354065     0.19530
C1522       C  0.27892252  0.55472101  0.90476401     0.24570
C1523       C  0.26591080  0.54218264  0.88153763    -0.23430
C1524       C  0.24817867  0.55866174  0.86456676     0.19470
F1525       F  0.23703573  0.54802928  0.84073380    -0.13380
F1526       F  0.21866147  0.59875054  0.86014545    -0.15750
F1527       F  0.29831876  0.54050086  0.92004946    -0.15750
F1528       F  0.28050533  0.59112749  0.93841153    -0.13380
C1529       C  0.10032352  0.66332693  0.09753100     0.24630
C1530       C  0.07447788  0.67656045  0.09431491    -0.23480
C1531       C  0.06786249  0.68973592  0.06838690     0.19530
C1532       C  0.08448475  0.68514239  0.04471655     0.24570
C1533       C  0.10786424  0.66757591  0.04707270    -0.23430
C1534       C  0.11673056  0.65830287  0.07382423     0.19470
F1535       F  0.14048217  0.64305850  0.07673288    -0.13380
F1536       F  0.10729820  0.65097891  0.12257553    -0.15750
F1537       F  0.07615722  0.69526920  0.01915113    -0.15750
F1538       F  0.04297244  0.70288329  0.06505288    -0.13380
C1539       C  0.20772597  0.40691040  0.06493548     0.24630
C1540       C  0.22310545  0.38422465  0.05416766    -0.23480
C1541       C  0.24474665  0.37244436  0.06998901     0.19530
C1542       C  0.25455547  0.38709838  0.09324650     0.24570
C1543       C  0.24396979  0.41428703  0.09854133    -0.23430
C1544       C  0.21776971  0.42149314  0.08802281     0.19470
F1545       F  0.20599713  0.44662076  0.09475916    -0.13380
F1546       F  0.18518608  0.41708998  0.05098496    -0.15750
F1547       F  0.27890255  0.37886527  0.10516104    -0.15750
F1548       F  0.25887761  0.34958721  0.06057061    -0.13380
C1549       C  0.23276978  0.37988938  0.90258958     0.24630
C1550       C  0.21292477  0.39725397  0.91560266    -0.23480
C1551       C  0.20003418  0.41870156  0.89921633     0.19530
C1552       C  0.21124750  0.42658401  0.87299087     0.24570
C1553       C  0.23628087  0.41435899  0.86432121    -0.23430
C1554       C  0.24363606  0.38791689  0.87618136     0.19470
F1555       F  0.26635758  0.37419836  0.86624425    -0.13380
F1556       F  0.24406483  0.35742451  0.91659316    -0.15750
F1557       F  0.20204634  0.45064902  0.86003179    -0.15750
F1558       F  0.17840255  0.43382690  0.90960875    -0.13380
C1559       C  0.05018762  0.32638094  0.03964963     0.24630
C1560       C  0.05345007  0.34346845  0.06352263    -0.23480
C1561       C  0.07734080  0.36063563  0.06559654     0.19530
C1562       C  0.09732943  0.36092931  0.04413437     0.24570
C1563       C  0.09397077  0.34378880  0.02053731    -0.23430
C1564       C  0.07041343  0.32646555  0.01843684     0.19470
F1565       F  0.06651242  0.31043595  0.99528240    -0.13380
F1566       F  0.02709217  0.31013455  0.03637764    -0.15750
F1567       F  0.12013466  0.37767270  0.04666372    -0.15750
F1568       F  0.08169948  0.37672813  0.08861217    -0.13380
C1569       C  0.11887023  0.48605502  0.00454647     0.24630
C1570       C  0.12348106  0.47269678  0.97850883    -0.23480
C1571       C  0.12499654  0.49004938  0.95408238     0.19530
C1572       C  0.12537860  0.51988265  0.95609302     0.24570
C1573       C  0.12414573  0.53314879  0.98254155    -0.23430
C1574       C  0.11929576  0.51585500  0.00654410     0.19470
F1575       F  0.11869854  0.52761740  0.03244519    -0.13380
F1576       F  0.11764118  0.47013734  0.02866595    -0.15750
F1577       F  0.13095876  0.53570483  0.93251047    -0.15750
F1578       F  0.13033865  0.47824559  0.92872840    -0.13380
C1579       C  0.44112443  0.42589967  0.81639166     0.24630
C1580       C  0.43654768  0.39658387  0.81564779    -0.23480
C1581       C  0.40956998  0.38607917  0.81107756     0.19530
C1582       C  0.38708366  0.40500818  0.80895665     0.24570
C1583       C  0.39172842  0.43425402  0.81174739    -0.23430
C1584       C  0.41893465  0.44451300  0.81464869     0.19470
F1585       F  0.42382158  0.47264617  0.81766657    -0.13380
F1586       F  0.46701473  0.43644170  0.82100644    -0.15750
F1587       F  0.36081312  0.39479103  0.80636034    -0.15750
F1588       F  0.40480937  0.35771869  0.81078458    -0.13380
C1589       C  0.41109200  0.38944123  0.11995750     0.24630
C1590       C  0.43437543  0.39193627  0.13757339    -0.23480
C1591       C  0.43474438  0.41341289  0.15772455     0.19530
C1592       C  0.41303216  0.43323409  0.15889757     0.24570
C1593       C  0.39075775  0.43191563  0.13981985    -0.23430
C1594       C  0.38951827  0.40928505  0.12101519     0.19470
F1595       F  0.36807227  0.40725707  0.10265865    -0.13380
F1596       F  0.41018509  0.36880385  0.10038966    -0.15750
F1597       F  0.41521562  0.45537583  0.17664823    -0.15750
F1598       F  0.45746985  0.41703101  0.17414823    -0.13380
C1599       C  0.50661517  0.37451677  0.99296170     0.24630
C1600       C  0.48523776  0.36078057  0.00874100    -0.23480
C1601       C  0.46388326  0.34738428  0.99342855     0.19530
C1602       C  0.46416578  0.34723597  0.96370078     0.24570
C1603       C  0.48567276  0.36061876  0.94795334    -0.23430
C1604       C  0.50677642  0.37449458  0.96311652     0.19470
F1605       F  0.52840934  0.38699921  0.94910405    -0.13380
F1606       F  0.52814709  0.38705456  0.00635763    -0.15750
F1607       F  0.44303244  0.33402629  0.95028866    -0.15750
F1608       F  0.44243459  0.33426848  0.00719373    -0.13380
C1609       C  0.36905594  0.23195743  0.07815044     0.24630
C1610       C  0.35852423  0.24532480  0.05395857    -0.23480
C1611       C  0.36471971  0.27392431  0.04862018     0.19530
C1612       C  0.38690379  0.28645995  0.06247162     0.24570
C1613       C  0.40229554  0.27044133  0.08230956    -0.23430
C1614       C  0.39142591  0.24414868  0.09199830     0.19470
F1615       F  0.40392596  0.22887537  0.11286421    -0.13380
F1616       F  0.36214681  0.20457554  0.08429300    -0.15750
F1617       F  0.39484287  0.31302829  0.05430366    -0.15750
F1618       F  0.35338296  0.28755032  0.02601896    -0.13380
C1619       C  0.38533434  0.26363033  0.92845888     0.24630
C1620       C  0.38610374  0.23408116  0.92929505    -0.23480
C1621       C  0.39918895  0.21914647  0.90773221     0.19530
C1622       C  0.41516875  0.23367107  0.88773104     0.24570
C1623       C  0.41829392  0.26321562  0.88957037    -0.23430
C1624       C  0.40137831  0.27830268  0.90857461     0.19470
F1625       F  0.40221235  0.30702829  0.90979764    -0.13380
F1626       F  0.37214216  0.27815821  0.94905437    -0.15750
F1627       F  0.42917895  0.21860460  0.86810685    -0.15750
F1628       F  0.39870978  0.19035606  0.90780391    -0.13380
C1629       C  0.21123872  0.24392985  0.96170321     0.24630
C1630       C  0.21621738  0.26985604  0.97520799    -0.23480
C1631       C  0.24141466  0.27313277  0.98979136     0.19530
C1632       C  0.26153268  0.25193833  0.98984446     0.24570
C1633       C  0.25744035  0.22650232  0.97511631    -0.23430
C1634       C  0.23166299  0.22248768  0.96159905     0.19470
F1635       F  0.22654199  0.19833315  0.94738976    -0.13380
F1636       F  0.18718279  0.23978180  0.94750537    -0.15750
F1637       F  0.28535230  0.25680785  0.00428239    -0.15750
F1638       F  0.24692415  0.29718392  0.00409152    -0.13380
C1639       C  0.56606329  0.27286135  0.02957368     0.24630
C1640       C  0.56647142  0.24401445  0.02330626    -0.23480
C1641       C  0.55082395  0.22469349  0.03997857     0.19530
C1642       C  0.53297466  0.23431545  0.06098149     0.24570
C1643       C  0.53029267  0.26345384  0.06531736    -0.23430
C1644       C  0.54791543  0.28258876  0.05040401     0.19470
F1645       F  0.54665284  0.31084335  0.05505884    -0.13380
F1646       F  0.58114619  0.29180646  0.01385997    -0.15750
F1647       F  0.51644828  0.21539486  0.07512688    -0.15750
F1648       F  0.55110900  0.19660050  0.03418846    -0.13380
C1649       C  0.55546456  0.30109779  0.89701075     0.24630
C1650       C  0.54789283  0.28465637  0.87363673    -0.23480
C1651       C  0.56868747  0.26840879  0.86049845     0.19530
C1652       C  0.59426715  0.26432321  0.87390046     0.24570
C1653       C  0.59797444  0.27464642  0.90119677    -0.23430
C1654       C  0.58142337  0.29737866  0.90954253     0.19470
F1655       F  0.58645563  0.30989689  0.93456568    -0.13380
F1656       F  0.53717695  0.31898652  0.90926512    -0.15750
F1657       F  0.61204915  0.24462165  0.86374011    -0.15750
F1658       F  0.56347862  0.25425674  0.83641437    -0.13380
C1659       C  0.47349906  0.12963379  0.00177286     0.24630
C1660       C  0.45593193  0.13117181  0.97790955    -0.23480
C1661       C  0.46872240  0.13105063  0.95113785     0.19530
C1662       C  0.49789727  0.13342269  0.94837665     0.24570
C1663       C  0.51516464  0.13586047  0.97223261    -0.23430
C1664       C  0.50272369  0.13200092  0.99898755     0.19470
F1665       F  0.51832860  0.13451944  0.02257971    -0.13380
F1666       F  0.46210890  0.12936846  0.02806077    -0.15750
F1667       F  0.50905538  0.13717798  0.92219238    -0.15750
F1668       F  0.45291909  0.13303096  0.92757597    -0.13380
C1669       C  0.42355190  0.85341620  0.36812737     0.24630
C1670       C  0.44486870  0.83320898  0.37043420    -0.23480
C1671       C  0.44333710  0.81190722  0.39138709     0.19530
C1672       C  0.42137216  0.81155529  0.41067166     0.24570
C1673       C  0.40073243  0.83247362  0.40913548    -0.23430
C1674       C  0.40153705  0.85305517  0.38747836     0.19470
F1675       F  0.38142121  0.87311322  0.38556705    -0.13380
F1676       F  0.42438128  0.87381755  0.34761113    -0.15750
F1677       F  0.42149541  0.79226537  0.43228951    -0.15750
F1678       F  0.46430981  0.79293175  0.39462284    -0.13380
C1679       C  0.40601358  0.16448022  0.37089581     0.23190
C1680       C  0.43134536  0.14994579  0.37398287    -0.23480
C1681       C  0.43762188  0.13694420  0.40006065     0.19530
C1682       C  0.41878987  0.13769892  0.42236812     0.24570
C1683       C  0.39300169  0.15130311  0.41922288    -0.23430
C1684       C  0.38682195  0.16502024  0.39338768     0.19470
F1685       F  0.36194663  0.17802751  0.38960890    -0.13380
F1686       F  0.39956889  0.17739513  0.34598933    -0.15750
F1687       F  0.42610379  0.12544100  0.44737557    -0.15750
F1688       F  0.46259660  0.12421791  0.40435937    -0.13380
C1689       C  0.51590407  0.22887547  0.23334392     0.24630
C1690       C  0.48981922  0.22297418  0.24574169    -0.23480
C1691       C  0.46804722  0.24244625  0.24111420     0.19530
C1692       C  0.47179179  0.26611363  0.22275280     0.24570
C1693       C  0.49758056  0.27116578  0.20921767    -0.23430
C1694       C  0.51974760  0.25266362  0.21546906     0.19470
F1695       F  0.54484210  0.25665634  0.20265067    -0.13380
F1696       F  0.53768836  0.21125032  0.23819375    -0.15750
F1697       F  0.44954602  0.28253968  0.21619293    -0.15750
F1698       F  0.44258310  0.23744391  0.25274900    -0.13380
C1699       C  0.52339575  0.00917069  0.34460927     0.24630
C1700       C  0.49879202  0.02514600  0.34682046    -0.23480
C1701       C  0.47384814  0.01063003  0.35329767     0.19530
C1702       C  0.47297426  0.98072731  0.35389183     0.24570
C1703       C  0.49711783  0.96473036  0.34861824    -0.23430
C1704       C  0.52261988  0.97934023  0.34582486     0.19470
F1705       F  0.54623382  0.96479125  0.33999603    -0.13380
F1706       F  0.54777027  0.02239326  0.33793389    -0.15750
F1707       F  0.44795014  0.96743016  0.35621875    -0.15750
F1708       F  0.44964526  0.02523479  0.35513818    -0.13380
C1709       C  0.38965928  0.07105336  0.20480230     0.24630
C1710       C  0.40406410  0.05009509  0.18969097    -0.23480
C1711       C  0.43166969  0.05586499  0.18099089     0.19530
C1712       C  0.44569142  0.07954777  0.19118642     0.24570
C1713       C  0.43273506  0.09696771  0.21100279    -0.23430
C1714       C  0.40394287  0.09448843  0.21514787     0.19470
F1715       F  0.39077166  0.11186315  0.23338916    -0.13380
F1716       F  0.36228018  0.06795662  0.21144031    -0.15750
F1717       F  0.47347094  0.08213930  0.18624825    -0.15750
F1718       F  0.44601906  0.03741628  0.16481966    -0.13380
C1719       C  0.42959025  0.90670626  0.18188492     0.24630
C1720       C  0.40528935  0.91668912  0.19526502    -0.23480
C1721       C  0.39490898  0.90233716  0.21933515     0.19530
C1722       C  0.41096287  0.88145240  0.23232486     0.24570
C1723       C  0.43750439  0.87562554  0.22155806    -0.23430
C1724       C  0.44545101  0.88595940  0.19495638     0.19470
F1725       F  0.47094831  0.87976164  0.18421345    -0.13380
F1726       F  0.43983231  0.91907867  0.15789928    -0.15750
F1727       F  0.40280751  0.87065636  0.25782031    -0.15750
F1728       F  0.37036977  0.90985317  0.23136400    -0.13380
C1729       C  0.34900780  0.07988442  0.05860246     0.24630
C1730       C  0.32513913  0.06359031  0.06398254    -0.23480
C1731       C  0.30108904  0.06793563  0.04802923     0.19530
C1732       C  0.30148873  0.08770083  0.02566930     0.24570
C1733       C  0.32628534  0.10239015  0.01879073    -0.23430
C1734       C  0.34982351  0.09874267  0.03591847     0.19470
F1735       F  0.37417317  0.11233197  0.03008333    -0.13380
F1736       F  0.37246094  0.07563201  0.07395895    -0.15750
F1737       F  0.27849892  0.09071049  0.00942379    -0.15750
F1738       F  0.27815335  0.05159898  0.05269853    -0.13380
C1739       C  0.24332748  0.00550860  0.18535638     0.24630
C1740       C  0.26895438  0.99131064  0.18788115    -0.23480
C1741       C  0.27287919  0.97311332  0.21137851     0.19530
C1742       C  0.25291983  0.97077462  0.23283931     0.24570
C1743       C  0.22802890  0.98632050  0.23153484    -0.23430
C1744       C  0.22285705  0.00281922  0.20693448     0.19470
F1745       F  0.19903006  0.01801152  0.20475478    -0.13380
F1746       F  0.23900916  0.02363008  0.16329197    -0.15750
F1747       F  0.25853400  0.95393184  0.25562335    -0.15750
F1748       F  0.29723960  0.95891588  0.21456457    -0.13380
C1749       C  0.56737830  0.07352894  0.26132635     0.24630
C1750       C  0.55092844  0.09028585  0.24319801    -0.23480
C1751       C  0.55729626  0.09182683  0.21439086     0.19530
C1752       C  0.57692098  0.07328105  0.20322771     0.24570
C1753       C  0.58987349  0.05304275  0.22088500    -0.23430
C1754       C  0.58695089  0.05496839  0.25018489     0.19470
F1755       F  0.59921316  0.03560182  0.26756659    -0.13380
F1756       F  0.56142320  0.07193872  0.28935303    -0.15750
F1757       F  0.58022478  0.07216095  0.17480813    -0.15750
F1758       F  0.54173907  0.10811566  0.19669697    -0.13380
C1759       C  0.60123786  0.91909833  0.26786703     0.24630
C1760       C  0.60602122  0.92154310  0.23884555    -0.23480
C1761       C  0.59205866  0.90352492  0.22033203     0.19530
C1762       C  0.56912038  0.88798792  0.23004802     0.24570
C1763       C  0.56088954  0.89028411  0.25827674    -0.23430
C1764       C  0.57861690  0.90324136  0.27767765     0.19470
F1765       F  0.57149824  0.90420206  0.30540405    -0.13380
F1766       F  0.61513559  0.93599616  0.28591844    -0.15750
F1767       F  0.55231319  0.87523818  0.21112648    -0.15750
F1768       F  0.59675262  0.90576790  0.19208773    -0.13380
C1769       C  0.60941948  0.07045849  0.06999216     0.24630
C1770       C  0.63541974  0.06341132  0.08160482    -0.23480
C1771       C  0.65972674  0.07565312  0.07016419     0.19530
C1772       C  0.65795528  0.09632687  0.04917427     0.24570
C1773       C  0.63174686  0.10531056  0.03924653    -0.23430
C1774       C  0.60759953  0.09127699  0.04892329     0.19470
F1775       F  0.58223084  0.09775482  0.03820370    -0.13380
F1776       F  0.58571818  0.05737370  0.07911523    -0.15750
F1777       F  0.68206823  0.10833162  0.03965139    -0.15750
F1778       F  0.68529520  0.06881195  0.08021710    -0.13380
C1779       C  0.51289110  0.01881432  0.11151394     0.24630
C1780       C  0.52516226  0.99276170  0.11957290    -0.23480
C1781       C  0.50881543  0.96804249  0.11784224     0.19530
C1782       C  0.48057714  0.96943156  0.11056699     0.24570
C1783       C  0.46750475  0.99562620  0.10501664    -0.23430
C1784       C  0.48432646  0.02024015  0.10431638     0.19470
F1785       F  0.47263325  0.04595505  0.09926590    -0.13380
F1786       F  0.52776455  0.04322082  0.11328558    -0.15750
F1787       F  0.46551611  0.94504337  0.11038764    -0.15750
F1788       F  0.51984402  0.94247052  0.12499864    -0.13380
C1789       C  0.57419332  0.85315866  0.44141449     0.24630
C1790       C  0.60240389  0.85095225  0.43415222    -0.23480
C1791       C  0.61056994  0.84759310  0.40603539     0.19530
C1792       C  0.59064296  0.84703019  0.38502359     0.24570
C1793       C  0.56247771  0.84959208  0.39209424    -0.23430
C1794       C  0.55411529  0.85229643  0.42029671     0.19470
F1795       F  0.52675645  0.85465561  0.42714463    -0.13380
F1796       F  0.56629941  0.85649635  0.46868979    -0.15750
F1797       F  0.59872370  0.84387406  0.35776019    -0.15750
F1798       F  0.63789347  0.84518430  0.39900707    -0.13380
C1799       C  0.58168325  0.17658548  0.41044202     0.24630
C1800       C  0.58876864  0.15238336  0.42642475    -0.23480
C1801       C  0.57250127  0.12774577  0.42483490     0.19530
C1802       C  0.55009165  0.12691352  0.40637889     0.24570
C1803       C  0.54395911  0.15065942  0.38913842    -0.23430
C1804       C  0.55948025  0.17574977  0.39189806     0.19470
F1805       F  0.55451334  0.19889635  0.37526431    -0.13380
F1806       F  0.59730251  0.20059479  0.41152406    -0.15750
F1807       F  0.53471356  0.10277190  0.40500691    -0.15750
F1808       F  0.57827335  0.10458219  0.44115151    -0.13380
C1809       C  0.74993843  0.23716506  0.46564463     0.24630
C1810       C  0.72544832  0.24087469  0.48156505    -0.23480
C1811       C  0.72129077  0.26723813  0.49460533     0.19530
C1812       C  0.74232668  0.28840101  0.49357240     0.24570
C1813       C  0.76751683  0.28362595  0.47907653    -0.23430
C1814       C  0.77045358  0.25816199  0.46432405     0.19470
F1815       F  0.79420506  0.25285010  0.44967874    -0.13380
F1816       F  0.75449861  0.21264143  0.45178313    -0.15750
F1817       F  0.73891788  0.31249277  0.50836199    -0.15750
F1818       F  0.69783055  0.27175675  0.50991451    -0.13380
C1819       C  0.63022636  0.98947314  0.51152098     0.24630
C1820       C  0.63743642  0.97516761  0.48672773    -0.23480
C1821       C  0.64095974  0.99149747  0.46174139     0.19530
C1822       C  0.64041061  0.02137063  0.46218151     0.24570
C1823       C  0.63674345  0.03574142  0.48771394    -0.23430
C1824       C  0.63014805  0.01940080  0.51206858     0.19470
F1825       F  0.62671934  0.03239494  0.53714023    -0.13380
F1826       F  0.62700592  0.97459988  0.53610276    -0.15750
F1827       F  0.64741107  0.03619250  0.43834907    -0.15750
F1828       F  0.64833817  0.97858665  0.43747051    -0.13380
C1829       C  0.76748357  0.10535357  0.39622572     0.24630
C1830       C  0.75146332  0.08621659  0.38066883    -0.23480
C1831       C  0.72255223  0.08562768  0.38428383     0.19530
C1832       C  0.71050238  0.09987138  0.40677239     0.24570
C1833       C  0.72740780  0.11470165  0.42564042    -0.23430
C1834       C  0.75549918  0.11947783  0.41890414     0.19470
F1835       F  0.77220556  0.13373193  0.43681759    -0.13380
F1836       F  0.79559964  0.10594626  0.39305555    -0.15750
F1837       F  0.68299479  0.09598913  0.41241918    -0.15750
F1838       F  0.70679900  0.06739297  0.36929355    -0.13380
C1839       C  0.77204083  0.91821920  0.43460411     0.24630
C1840       C  0.74413596  0.92156571  0.44236923    -0.23480
C1841       C  0.72703249  0.93982298  0.42643169     0.19530
C1842       C  0.73856344  0.95758316  0.40559974     0.24570
C1843       C  0.76732884  0.95734325  0.40083770    -0.23430
C1844       C  0.78365633  0.93612673  0.41380071     0.19470
F1845       F  0.81146630  0.93510984  0.40869951    -0.13380
F1846       F  0.78860693  0.90003547  0.44923356    -0.15750
F1847       F  0.72244026  0.97786368  0.39334118    -0.15750
F1848       F  0.69967320  0.94253379  0.43304872    -0.13380
C1849       C  0.89827487  0.07436484  0.34279344     0.24630
C1850       C  0.89415009  0.05301079  0.32299666    -0.23480
C1851       C  0.91196966  0.05143694  0.29945399     0.19530
C1852       C  0.93439131  0.07020933  0.29644857     0.24570
C1853       C  0.93920692  0.09072036  0.31694895    -0.23430
C1854       C  0.92065305  0.09311163  0.33977915     0.19470
F1855       F  0.92443643  0.11338645  0.35935593    -0.13380
F1856       F  0.88082146  0.07683424  0.36523286    -0.15750
F1857       F  0.95251867  0.06704489  0.27465252    -0.15750
F1858       F  0.90886088  0.03046928  0.28047994    -0.13380
C1859       C  0.76799909  0.00974731  0.23684247     0.24630
C1860       C  0.76156218  0.00540728  0.26575334    -0.23480
C1861       C  0.73398092  0.99796098  0.27295954     0.19530
C1862       C  0.71346616  0.99540161  0.25233253     0.24570
C1863       C  0.71947415  0.00041848  0.22339940    -0.23430
C1864       C  0.74722918  0.00742917  0.21597846     0.19470
F1865       F  0.75432036  0.01249388  0.18859431    -0.13380
F1866       F  0.79428680  0.01681465  0.22869349    -0.15750
F1867       F  0.68749563  0.98780643  0.26111802    -0.15750
F1868       F  0.72668105  0.99243300  0.30022936    -0.13380
C1869       C  0.78781022  0.09097118  0.57095737     0.24630
C1870       C  0.76951193  0.08184885  0.59253003    -0.23480
C1871       C  0.74588121  0.09781194  0.59877212     0.19530
C1872       C  0.73805950  0.11970666  0.58028849     0.24570
C1873       C  0.75369403  0.12479645  0.55550384    -0.23430
C1874       C  0.77989467  0.11250285  0.55246271     0.19470
F1875       F  0.79559857  0.11805209  0.52907327    -0.13380
F1876       F  0.81193833  0.07713792  0.56589728    -0.15750
F1877       F  0.71292822  0.13223981  0.58388916    -0.15750
F1878       F  0.72875399  0.08997693  0.62044058    -0.13380
C1879       C  0.76468003  0.93380473  0.60726358     0.24630
C1880       C  0.78810785  0.94555865  0.59357168    -0.23480
C1881       C  0.80180354  0.92955967  0.57279837     0.19530
C1882       C  0.78843432  0.90628629  0.56112589     0.24570
C1883       C  0.76140738  0.89944746  0.57004086    -0.23430
C1884       C  0.75173404  0.91009015  0.59585107     0.19470
F1885       F  0.72632637  0.90206796  0.60591116    -0.13380
F1886       F  0.75192245  0.94751473  0.62865767    -0.15750
F1887       F  0.79902634  0.89489097  0.53727221    -0.15750
F1888       F  0.82619052  0.93869973  0.56111892    -0.13380
C1889       C  0.92504936  0.10972010  0.64999433     0.24630
C1890       C  0.94928642  0.10398299  0.63421455    -0.23480
C1891       C  0.95191485  0.07741743  0.62152166     0.19530
C1892       C  0.93066546  0.05745281  0.62364744     0.24570
C1893       C  0.90612183  0.06318691  0.63882659    -0.23430
C1894       C  0.90361046  0.08937213  0.65236405     0.19470
F1895       F  0.88010286  0.09563973  0.66695497    -0.13380
F1896       F  0.92167320  0.13527342  0.66221871    -0.15750
F1897       F  0.93448291  0.03210440  0.61107447    -0.15750
F1898       F  0.97541638  0.07041367  0.60720859    -0.13380
C1899       C  0.87471433  0.98501720  0.50186792     0.24630
C1900       C  0.87667126  0.01021271  0.51731003    -0.23480
C1901       C  0.88122585  0.03574145  0.50203696     0.19530
C1902       C  0.87974586  0.03665627  0.47240167     0.24570
C1903       C  0.87380197  0.01204671  0.45713745    -0.23430
C1904       C  0.87336125  0.98591208  0.47207257     0.19470
F1905       F  0.86729710  0.96172039  0.45827692    -0.13380
F1906       F  0.86977184  0.96003004  0.51567000    -0.15750
F1907       F  0.88031914  0.06226313  0.45886770    -0.15750
F1908       F  0.88293771  0.06053697  0.51601973    -0.13380
C1909       C  0.88203659  0.58295018  0.41187825     0.24630
C1910       C  0.85914754  0.59871940  0.42127977    -0.23480
C1911       C  0.83309650  0.59512500  0.40845262     0.19530
C1912       C  0.83011606  0.57665328  0.38619518     0.24570
C1913       C  0.85307257  0.56127803  0.37634297    -0.23430
C1914       C  0.87901636  0.56430131  0.38957262     0.19470
F1915       F  0.90127095  0.54873583  0.38141646    -0.13380
F1916       F  0.90718923  0.58526022  0.42452984    -0.15750
F1917       F  0.80483658  0.57448394  0.37375184    -0.15750
F1918       F  0.81062239  0.61039108  0.41661407    -0.13380
C1919       C  0.76233266  0.73538779  0.50361795     0.24630
C1920       C  0.78829536  0.74098155  0.49065181    -0.23480
C1921       C  0.79327943  0.76855515  0.47967591     0.19530
C1922       C  0.77321425  0.78993134  0.48186422     0.24570
C1923       C  0.74733948  0.78461377  0.49517365    -0.23430
C1924       C  0.74213454  0.75690106  0.50588328     0.19470
F1925       F  0.71771197  0.75067046  0.51917178    -0.13380
F1926       F  0.75678434  0.70934435  0.51496404    -0.15750
F1927       F  0.77904474  0.81579399  0.47020529    -0.15750
F1928       F  0.81757859  0.77483889  0.46612969    -0.13380
C1929       C  0.20011328  0.57026259  0.39813554     0.24630
C1930       C  0.18502387  0.59557314  0.39918937    -0.23480
C1931       C  0.16864545  0.60397151  0.37612694     0.19530
C1932       C  0.16478979  0.58566057  0.35369585     0.24570
C1933       C  0.17735307  0.55887405  0.35414710    -0.23430
C1934       C  0.19645186  0.55202841  0.37550677     0.19470
F1935       F  0.20868695  0.52614525  0.37626106    -0.13380
F1936       F  0.21616781  0.56201922  0.42022889    -0.15750
F1937       F  0.14528373  0.59210557  0.33401683    -0.15750
F1938       F  0.15308642  0.62791401  0.37734816    -0.13380
C1939       C  0.25343540  0.76505933  0.48091129     0.24630
C1940       C  0.27836895  0.76155224  0.46580199    -0.23480
C1941       C  0.28375050  0.73470228  0.45407342     0.19530
C1942       C  0.26347204  0.71281920  0.45540727     0.24570
C1943       C  0.23787318  0.71719766  0.46918506    -0.23430
C1944       C  0.23380309  0.74319052  0.48291122     0.19470
F1945       F  0.20965663  0.74811802  0.49704307    -0.13380
F1946       F  0.24781128  0.78993580  0.49371192    -0.15750
F1947       F  0.26809263  0.68829544  0.44166958    -0.15750
F1948       F  0.30790992  0.73018219  0.43991631    -0.13380
C1949       C  0.02333620  0.62271549  0.45107938     0.24630
C1950       C  0.04078316  0.62711566  0.47452473    -0.23480
C1951       C  0.02779975  0.63421288  0.50025598     0.19530
C1952       C  0.99888072  0.63849123  0.50211104     0.24570
C1953       C  0.98161940  0.63593404  0.47840687    -0.23430
C1954       C  0.99417384  0.62741326  0.45292328     0.19470
F1955       F  0.97860761  0.62592127  0.42922485    -0.13380
F1956       F  0.03473044  0.61634740  0.42573157    -0.15750
F1957       F  0.98792834  0.64756074  0.52681873    -0.15750
F1958       F  0.04338436  0.63850293  0.52359082    -0.13380
C1959       C  0.06254039  0.70033311  0.38482030     0.24630
C1960       C  0.06792859  0.72532636  0.36937843    -0.23480
C1961       C  0.09367525  0.73901848  0.37210874     0.19530
C1962       C  0.11085957  0.73171843  0.39463043     0.24570
C1963       C  0.10244834  0.71024935  0.41393216    -0.23430
C1964       C  0.07958365  0.69293732  0.40727100     0.19470
F1965       F  0.07229435  0.67028591  0.42373195    -0.13380
F1966       F  0.03824168  0.68606321  0.38132065    -0.15750
F1967       F  0.13395381  0.74763780  0.39911238    -0.15750
F1968       F  0.09970409  0.76266920  0.35645107    -0.13380
C1969       C  0.91065217  0.76986394  0.42012939     0.24630
C1970       C  0.91106727  0.74120328  0.42796416    -0.23480
C1971       C  0.92227041  0.72119973  0.40946429     0.19530
C1972       C  0.93800120  0.73031445  0.38625742     0.24570
C1973       C  0.94290060  0.75933374  0.38230204    -0.23430
C1974       C  0.92608231  0.77890740  0.39659231     0.19470
F1975       F  0.92961275  0.80714338  0.39174639    -0.13380
F1976       F  0.89922733  0.78928548  0.43746350    -0.15750
F1977       F  0.95334538  0.71110593  0.37197270    -0.15750
F1978       F  0.92188370  0.69315636  0.41652120    -0.13380
C1979       C  0.05343234  0.90224735  0.30860694     0.24630
C1980       C  0.05282413  0.88095446  0.32948772    -0.23480
C1981       C  0.07397433  0.87940854  0.34971964     0.19530
C1982       C  0.09614741  0.89857699  0.34846930     0.24570
C1983       C  0.09704935  0.91974557  0.32719895    -0.23430
C1984       C  0.07515237  0.92168995  0.30760505     0.19470
F1985       F  0.07441876  0.94268121  0.28763484    -0.13380
F1986       F  0.03246702  0.90474511  0.28965557    -0.15750
F1987       F  0.11700621  0.89588418  0.36749560    -0.15750
F1988       F  0.07356186  0.85887099  0.37014129    -0.13380
C1989       C  0.92347094  0.93931514  0.35498424     0.24630
C1990       C  0.89659859  0.93431191  0.34482480    -0.23480
C1991       C  0.88945942  0.90787865  0.33399200     0.19530
C1992       C  0.90911489  0.88639180  0.33329971     0.24570
C1993       C  0.93598851  0.89134927  0.34328366    -0.23430
C1994       C  0.94324824  0.91776892  0.35416293     0.19470
F1995       F  0.96952011  0.92276948  0.36325089    -0.13380
F1996       F  0.93066078  0.96518502  0.36476304    -0.15750
F1997       F  0.90207301  0.86078873  0.32277036    -0.15750
F1998       F  0.86346475  0.90300988  0.32407510    -0.13380
C1999       C  0.03024981  0.73864914  0.25490830     0.24630
C2000       C  0.01003680  0.76008632  0.25325751    -0.23480
C2001       C  0.99252588  0.76104090  0.22949206     0.19530
C2002       C  0.99354540  0.73937242  0.20928128     0.24570
C2003       C  0.01232126  0.71666979  0.21238822    -0.23430
C2004       C  0.03144726  0.71737468  0.23473546     0.19470
F2005       F  0.05018480  0.69613102  0.23816450    -0.13380
F2006       F  0.04816082  0.73754034  0.27693177    -0.15750
F2007       F  0.97449448  0.73917088  0.18829263    -0.15750
F2008       F  0.97280591  0.78144455  0.22716721    -0.13380
C2009       C  0.08763164  0.71452159  0.56400728     0.24630
C2010       C  0.09164092  0.72474569  0.53633284    -0.23480
C2011       C  0.07468773  0.74609502  0.52522527     0.19530
C2012       C  0.05432073  0.75790478  0.54195455     0.24570
C2013       C  0.05137540  0.74917067  0.57043694    -0.23430
C2014       C  0.06768733  0.72686900  0.58116844     0.19470
F2015       F  0.06547278  0.71809021  0.60851807    -0.13380
F2016       F  0.10373049  0.69333812  0.57463949    -0.15750
F2017       F  0.03796000  0.77842908  0.53040244    -0.15750
F2018       F  0.07746652  0.75509245  0.49795758    -0.13380
C2019       C  0.90422417  0.74239304  0.58699051     0.24630
C2020       C  0.89866000  0.75687461  0.56157476    -0.23480
C2021       C  0.90590447  0.78542756  0.55842306     0.19530
C2022       C  0.92394817  0.79742627  0.57771982     0.24570
C2023       C  0.93546820  0.78026014  0.59932926    -0.23430
C2024       C  0.92295525  0.75397022  0.60589783     0.19470
F2025       F  0.93193910  0.73762130  0.62784426    -0.13380
F2026       F  0.89620810  0.71491683  0.59061112    -0.15750
F2027       F  0.93317454  0.82432553  0.57286516    -0.15750
F2028       F  0.89957646  0.79994848  0.53434110    -0.13380
C2029       C  0.94370523  0.96096727  0.64959093     0.24630
C2030       C  0.91830721  0.94953706  0.64059768    -0.23480
C2031       C  0.91487597  0.92016025  0.63889153     0.19530
C2032       C  0.93674614  0.90226893  0.64624616     0.24570
C2033       C  0.96234947  0.91376888  0.65470720    -0.23430
C2034       C  0.96578701  0.94316192  0.65613758     0.19470
F2035       F  0.99055428  0.95452483  0.66379615    -0.13380
F2036       F  0.94702822  0.98940205  0.65206922    -0.15750
F2037       F  0.93332204  0.87382580  0.64391851    -0.15750
F2038       F  0.89012200  0.90886575  0.63108360    -0.13380
C2039       C  0.08594426  0.90265750  0.65768423     0.24630
C2040       C  0.08207580  0.88450437  0.63480616    -0.23480
C2041       C  0.10108417  0.88576122  0.61211361     0.19530
C2042       C  0.12133606  0.90705422  0.61062609     0.24570
C2043       C  0.12324104  0.92707577  0.63205589    -0.23430
C2044       C  0.10646910  0.92379830  0.65632297     0.19470
F2045       F  0.10775727  0.94302019  0.67724759    -0.13380
F2046       F  0.06764161  0.90243785  0.67963052    -0.15750
F2047       F  0.13799343  0.90914538  0.58744624    -0.15750
F2048       F  0.09832937  0.86797732  0.59010068    -0.13380
C2049       C  0.98095646  0.83947315  0.47353681     0.24630
C2050       C  0.00347714  0.84832102  0.45634911    -0.23480
C2051       C  0.02500090  0.86400215  0.46889160     0.19530
C2052       C  0.02441615  0.86973624  0.49812243     0.24570
C2053       C  0.00270106  0.85916575  0.51558356    -0.23430
C2054       C  0.98068531  0.84457675  0.50268331     0.19470
F2055       F  0.95944384  0.83388809  0.51865169    -0.13380
F2056       F  0.96016670  0.82369880  0.46243971    -0.15750
F2057       F  0.04626934  0.88345991  0.50974400    -0.15750
F2058       F  0.04745816  0.87217286  0.45322369    -0.13380
C2059       C  0.60361876  0.41392245  0.81928645     0.24630
C2060       C  0.59816871  0.44278561  0.81453479    -0.23480
C2061       C  0.57308281  0.45121708  0.80206224     0.19530
C2062       C  0.55265434  0.43116385  0.79659901     0.24570
C2063       C  0.55721513  0.40245052  0.80332155    -0.23430
C2064       C  0.58326571  0.39372416  0.81341518     0.19470
F2065       F  0.58796590  0.36608550  0.82023083    -0.13380
F2066       F  0.62841101  0.40542723  0.83000729    -0.15750
F2067       F  0.52753490  0.43997624  0.78689448    -0.15750
F2068       F  0.56773232  0.47906484  0.79681940    -0.13380
C2069       C  0.57071369  0.44314582  0.17418442     0.24630
C2070       C  0.59772141  0.43695212  0.16465005    -0.23480
C2071       C  0.60477892  0.40873570  0.15904655     0.19530
C2072       C  0.58390161  0.38800927  0.15819827     0.24570
C2073       C  0.55602382  0.39554050  0.16297633    -0.23430
C2074       C  0.54987680  0.42255652  0.17313418     0.19470
F2075       F  0.52315095  0.42993568  0.17874669    -0.13380
F2076       F  0.56371356  0.47012700  0.18065250    -0.15750
F2077       F  0.59027284  0.36198119  0.14830624    -0.15750
F2078       F  0.63072323  0.40227550  0.14970810    -0.13380
C2079       C  0.74873839  0.51346588  0.19893691     0.24630
C2080       C  0.72168815  0.50173052  0.20139282    -0.23480
C2081       C  0.71410153  0.48866542  0.22733993     0.19530
C2082       C  0.73389785  0.48575327  0.24934662     0.24570
C2083       C  0.76165002  0.49519628  0.24534319    -0.23430
C2084       C  0.76836798  0.50979176  0.22017555     0.19470
F2085       F  0.79438272  0.52049140  0.21590460    -0.13380
F2086       F  0.75679619  0.52773959  0.17508134    -0.15750
F2087       F  0.72640339  0.47236511  0.27380727    -0.15750
F2088       F  0.68828043  0.47738789  0.23084255    -0.13380
C2089       C  0.62648354  0.52556313  0.98961923     0.24630
C2090       C  0.62311698  0.50026423  0.00558700    -0.23480
C2091       C  0.62116027  0.47461257  0.99081843     0.19530
C2092       C  0.62477192  0.47418035  0.96113426     0.24570
C2093       C  0.62967939  0.49944111  0.94547127    -0.23430
C2094       C  0.62958780  0.52513937  0.96011160     0.19470
F2095       F  0.63503555  0.54985699  0.94598674    -0.13380
F2096       F  0.62835984  0.55079144  0.00281886    -0.15750
F2097       F  0.62583518  0.44886939  0.94804460    -0.15750
F2098       F  0.61848097  0.44968369  0.00533136    -0.13380
C2099       C  0.70794692  0.41559223  0.02813856     0.24630
C2100       C  0.72696244  0.39843562  0.04274499    -0.23480
C2101       C  0.72858054  0.40039483  0.07204566     0.19530
C2102       C  0.71959291  0.42511700  0.08469155     0.24570
C2103       C  0.70766542  0.44683184  0.06795538    -0.23430
C2104       C  0.69902089  0.44058609  0.04043657     0.19470
F2105       F  0.68495690  0.45979238  0.02437942    -0.13380
F2106       F  0.70416787  0.41223119  0.00003409    -0.15750
F2107       F  0.72509000  0.42883234  0.11243586    -0.15750
F2108       F  0.74487827  0.38211075  0.08688387    -0.13380
C2109       C  0.73599615  0.42613083  0.92224068     0.24630
C2110       C  0.76360750  0.42949747  0.93078051    -0.23480
C2111       C  0.78053208  0.45037356  0.91782196     0.19530
C2112       C  0.76902890  0.46995325  0.89893540     0.24570
C2113       C  0.74069135  0.46844259  0.89269756    -0.23430
C2114       C  0.72454007  0.44558691  0.90309240     0.19470
F2115       F  0.69696397  0.44403154  0.89719272    -0.13380
F2116       F  0.71944823  0.40610293  0.93472899    -0.15750
F2117       F  0.78483270  0.49177869  0.88871897    -0.15750
F2118       F  0.80753669  0.45334880  0.92550796    -0.13380
C2119       C  0.91002729  0.32398430  0.03261284     0.24630
C2120       C  0.88593888  0.33839966  0.04115432    -0.23480
C2121       C  0.88508891  0.35076379  0.06780113     0.19530
C2122       C  0.90817224  0.34892780  0.08562844     0.24570
C2123       C  0.93264015  0.33538420  0.07662582    -0.23430
C2124       C  0.93323636  0.32255062  0.05020419     0.19470
F2125       F  0.95673098  0.30965946  0.04099040    -0.13380
F2126       F  0.91170525  0.31293101  0.00641708    -0.15750
F2127       F  0.90658572  0.36056508  0.11150085    -0.15750
F2128       F  0.86215303  0.36509652  0.07625105    -0.13380
C2129       C  0.75570489  0.26145143  0.98078332     0.24630
C2130       C  0.75083262  0.29088527  0.98031637    -0.23480
C2131       C  0.72288415  0.30010847  0.97884408     0.19530
C2132       C  0.70071952  0.28070024  0.97737509     0.24570
C2133       C  0.70552285  0.25124274  0.97728382    -0.23430
C2134       C  0.73347769  0.24195852  0.97925780     0.19470
F2135       F  0.73956593  0.21388348  0.97974562    -0.13380
F2136       F  0.78207955  0.25135454  0.98222888    -0.15750
F2137       F  0.67443220  0.29103865  0.97602917    -0.15750
F2138       F  0.71668765  0.32815674  0.97910402    -0.13380
C2139       C  0.74100185  0.59171196  0.05436847     0.24630
C2140       C  0.72061189  0.57229046  0.04638497    -0.23480
C2141       C  0.71458570  0.56858676  0.01773746     0.19530
C2142       C  0.73059642  0.58253283  0.99711436     0.24570
C2143       C  0.75209357  0.60080296  0.00512821    -0.23430
C2144       C  0.75642616  0.60623613  0.03385016     0.19470
F2145       F  0.77755612  0.62328487  0.04215904    -0.13380
F2146       F  0.74695210  0.59543701  0.08202160    -0.15750
F2147       F  0.72620660  0.57705638  0.96948712    -0.15750
F2148       F  0.69498935  0.54957352  0.00978846    -0.13380
C2149       C  0.78888069  0.61046168  0.86662131     0.24630
C2150       C  0.78158843  0.62977567  0.88766377    -0.23480
C2151       C  0.75362085  0.63791420  0.89017312     0.19530
C2152       C  0.73307454  0.62030533  0.87944090     0.24570
C2153       C  0.74079466  0.59564006  0.86522370    -0.23430
C2154       C  0.76842373  0.59274523  0.85583513     0.19470
F2155       F  0.77635338  0.57014794  0.84040741    -0.13380
F2156       F  0.81604721  0.60427041  0.86173086    -0.15750
F2157       F  0.70604886  0.62508748  0.88633764    -0.15750
F2158       F  0.74600373  0.65862483  0.90813990    -0.13380
C2159       C  0.92939619  0.64155261  0.04674689     0.24630
C2160       C  0.90528941  0.65105290  0.06015601    -0.23480
C2161       C  0.90613328  0.65969435  0.08826604     0.19530
C2162       C  0.93104052  0.65753868  0.10332926     0.24570
C2163       C  0.95497979  0.64690250  0.09006610    -0.23430
C2164       C  0.95409160  0.63970478  0.06147708     0.19470
F2165       F  0.97724597  0.63059466  0.04782626    -0.13380
F2166       F  0.92902566  0.63412600  0.01921439    -0.15750
F2167       F  0.93146601  0.66465879  0.13090311    -0.15750
F2168       F  0.88290079  0.66967067  0.10106764    -0.13380
C2169       C  0.85747869  0.52015264  0.02283709     0.24630
C2170       C  0.86733385  0.53677208  0.99983927    -0.23480
C2171       C  0.87818324  0.52254489  0.97635645     0.19530
C2172       C  0.87733404  0.49265377  0.97494910     0.24570
C2173       C  0.86555844  0.47619400  0.99710200    -0.23430
C2174       C  0.85694436  0.49031996  0.02163096     0.19470
F2175       F  0.84468387  0.47535074  0.04313733    -0.13380
F2176       F  0.84562663  0.53290103  0.04536973    -0.15750
F2177       F  0.88503138  0.48014764  0.95057447    -0.15750
F2178       F  0.88658455  0.53787228  0.95333844    -0.13380
C2179       C  0.55633092  0.57709529  0.83264125     0.24630
C2180       C  0.56094420  0.60356402  0.81935850    -0.23480
C2181       C  0.58641512  0.60878246  0.80541872     0.19530
C2182       C  0.60720541  0.58791531  0.80538005     0.24570
C2183       C  0.60262708  0.56156042  0.81914833    -0.23430
C2184       C  0.57680713  0.55636690  0.83248162     0.19470
F2185       F  0.57097621  0.53084542  0.84492014    -0.13380
F2186       F  0.53151241  0.57091987  0.84525079    -0.15750
F2187       F  0.63200169  0.59378409  0.79266372    -0.15750
F2188       F  0.59148511  0.63430318  0.79269955    -0.13380
C2189       C  0.44806373  0.56719024  0.81009181     0.24630
C2190       C  0.44577362  0.58978130  0.82891132    -0.23480
C2191       C  0.42244969  0.59153562  0.84674206     0.19530
C2192       C  0.40174161  0.57110895  0.84583975     0.24570
C2193       C  0.40389561  0.54850164  0.82708064    -0.23430
C2194       C  0.42709955  0.54671581  0.80905262     0.19470
F2195       F  0.42962857  0.52513769  0.79068376    -0.13380
F2196       F  0.47060657  0.56483489  0.79288502    -0.15750
F2197       F  0.37889255  0.57421598  0.86251251    -0.15750
F2198       F  0.41891950  0.61381419  0.86414658    -0.13380
C2199       C  0.58968297  0.60712204  0.11832520     0.24630
C2200       C  0.56517236  0.60464836  0.13438221    -0.23480
C2201       C  0.56003239  0.58005279  0.15068530     0.19530
C2202       C  0.57840639  0.55733860  0.14957339     0.24570
C2203       C  0.60210058  0.55910617  0.13224901    -0.23430
C2204       C  0.60815963  0.58434045  0.11726951     0.19470
F2205       F  0.63109014  0.58622632  0.10045935    -0.13380
F2206       F  0.59508627  0.63107601  0.10293392    -0.15750
F2207       F  0.57169445  0.53264854  0.16318252    -0.15750
F2208       F  0.53596952  0.57711340  0.16566707    -0.13380
C2209       C  0.44880208  0.57321005  0.10247114     0.24630
C2210       C  0.44975941  0.59286028  0.12429967    -0.23480
C2211       C  0.43041887  0.59108655  0.14652093     0.19530
C2212       C  0.40998591  0.57020440  0.14676101     0.24570
C2213       C  0.40867828  0.55062515  0.12481919    -0.23430
C2214       C  0.42836145  0.55208693  0.10275376     0.19470
F2215       F  0.42794256  0.53297107  0.08170076    -0.13380
F2216       F  0.46787216  0.57424340  0.08121870    -0.15750
F2217       F  0.39060441  0.57008233  0.16774557    -0.15750
F2218       F  0.43049929  0.61046995  0.16735703    -0.13380
C2219       C  0.50301599  0.72094897  0.23158675     0.24630
C2220       C  0.51653374  0.72920973  0.20612439    -0.23480
C2221       C  0.52843154  0.75645038  0.20418749     0.19530
C2222       C  0.52607722  0.77523365  0.22652906     0.24570
C2223       C  0.51171102  0.76745527  0.25153914    -0.23430
C2224       C  0.50067064  0.73990920  0.25409262     0.19470
F2225       F  0.48622964  0.73191250  0.27762773    -0.13380
F2226       F  0.49073067  0.69507313  0.23418837    -0.15750
F2227       F  0.53780981  0.80137407  0.22358473    -0.15750
F2228       F  0.54237780  0.76508043  0.18053714    -0.13380
C2229       C  0.53103990  0.63032954  0.95855173     0.24630
C2230       C  0.50517437  0.63674624  0.94631859    -0.23480
C2231       C  0.48184365  0.63920183  0.96416467     0.19530
C2232       C  0.48479079  0.63790013  0.99366409     0.24570
C2233       C  0.51128556  0.63514000  0.00593365    -0.23430
C2234       C  0.53412557  0.62983626  0.98806077     0.19470
F2235       F  0.56003688  0.62761095  0.99908098    -0.13380
F2236       F  0.55404506  0.62831077  0.94195876    -0.15750
F2237       F  0.46235783  0.64358068  0.01011228    -0.15750
F2238       F  0.45670707  0.64601900  0.95309118    -0.13380
C2239       C  0.60890865  0.74788956  0.03491019     0.24630
C2240       C  0.60749979  0.77713409  0.02945106    -0.23480
C2241       C  0.59632337  0.79493647  0.05012860     0.19530
C2242       C  0.58303196  0.78333526  0.07399103     0.24570
C2243       C  0.58096791  0.75388202  0.07744149    -0.23430
C2244       C  0.59570731  0.73630056  0.05890557     0.19470
F2245       F  0.59347554  0.70766951  0.06159546    -0.13380
F2246       F  0.61943058  0.73029488  0.01520303    -0.15750
F2247       F  0.56894970  0.80063207  0.09159713    -0.15750
F2248       F  0.59559598  0.82342837  0.04562591    -0.13380
C2249       C  0.62530566  0.75453770  0.87657961     0.24630
C2250       C  0.61586814  0.77735075  0.89235410    -0.23480
C2251       C  0.59281845  0.79310192  0.88303968     0.19530
C2252       C  0.57594340  0.78245973  0.86191880     0.24570
C2253       C  0.58166054  0.75556075  0.85144805    -0.23430
C2254       C  0.60842584  0.74411725  0.85522976     0.19470
F2255       F  0.61487859  0.71884646  0.84365979    -0.13380
F2256       F  0.64820115  0.73981067  0.88467392    -0.15750
F2257       F  0.55082280  0.79467181  0.85715458    -0.15750
F2258       F  0.58445463  0.81640567  0.89714276    -0.13380
C2259       C  0.67418987  0.92599842  0.05618322     0.24630
C2260       C  0.65001539  0.91015360  0.04995255    -0.23480
C2261       C  0.62646444  0.91297917  0.06756929     0.19530
C2262       C  0.62673103  0.93186346  0.08992131     0.24570
C2263       C  0.65054663  0.94821573  0.09545468    -0.23430
C2264       C  0.67442594  0.94470451  0.07872970     0.19470
F2265       F  0.69757440  0.96055584  0.08317177    -0.13380
F2266       F  0.69763065  0.92393837  0.04022599    -0.15750
F2267       F  0.60345998  0.93435426  0.10608231    -0.15750
F2268       F  0.60290530  0.89776876  0.06313429    -0.13380
C2269       C  0.72514734  0.74920075  0.97130091     0.24630
C2270       C  0.73180268  0.77839567  0.97305351    -0.23480
C2271       C  0.76016884  0.78574614  0.97576068     0.19530
C2272       C  0.78096722  0.76460756  0.97709771     0.24570
C2273       C  0.77402572  0.73548750  0.97566992    -0.23430
C2274       C  0.74573766  0.72834063  0.97253569     0.19470
F2275       F  0.73750977  0.70080128  0.97163732    -0.13380
F2276       F  0.69836031  0.74027620  0.96908132    -0.15750
F2277       F  0.80792948  0.77275552  0.97966237    -0.15750
F2278       F  0.76790849  0.81336402  0.97723246    -0.13380
C2279       C  0.40954264  0.71222801  0.05453569     0.24630
C2280       C  0.40108682  0.73938483  0.06201562    -0.23480
C2281       C  0.41155844  0.75066371  0.08715979     0.19530
C2282       C  0.43719142  0.74105101  0.09727743     0.24570
C2283       C  0.45030770  0.71846736  0.08376767    -0.23430
C2284       C  0.43456708  0.70182940  0.06520184     0.19470
F2285       F  0.44511035  0.67757024  0.05460002    -0.13380
F2286       F  0.39779662  0.69936895  0.03214290    -0.15750
F2287       F  0.45074327  0.75631763  0.11695147    -0.15750
F2288       F  0.40157640  0.77570521  0.09652008    -0.13380
C2289       C  0.42454740  0.73117927  0.92662431     0.24630
C2290       C  0.42431552  0.76009185  0.93284688    -0.23480
C2291       C  0.43891057  0.77933591  0.91513337     0.19530
C2292       C  0.45601832  0.76952491  0.89343371     0.24570
C2293       C  0.45841642  0.74037876  0.88891106    -0.23430
C2294       C  0.44141722  0.72137753  0.90461336     0.19470
F2295       F  0.44370215  0.69302159  0.90082926    -0.13380
F2296       F  0.41077516  0.71225472  0.94355919    -0.15750
F2297       F  0.47238699  0.78819222  0.87877517    -0.15750
F2298       F  0.43863424  0.80748648  0.92061439    -0.13380
C2299       C  0.37045382  0.89198110  0.06088208     0.24630
C2300       C  0.34713054  0.88623032  0.04414109    -0.23480
C2301       C  0.32320785  0.90313213  0.04709675     0.19530
C2302       C  0.32382371  0.92722461  0.06407251     0.24570
C2303       C  0.34834682  0.93461504  0.07824859    -0.23430
C2304       C  0.37103660  0.91587733  0.07777600     0.19470
F2305       F  0.39457229  0.92172110  0.09232123    -0.13380
F2306       F  0.39347348  0.87544070  0.05946610    -0.15750
F2307       F  0.30152229  0.94479226  0.06426715    -0.15750
F2308       F  0.30030176  0.89813056  0.03132252    -0.13380
C2309       C  0.29523803  0.72689527  0.97417853     0.24630
C2310       C  0.28930343  0.75499377  0.98211800    -0.23480
C2311       C  0.26097801  0.76252948  0.98502775     0.19530
C2312       C  0.23953155  0.74271302  0.98036354     0.24570
C2313       C  0.24556481  0.71459886  0.97272144    -0.23430
C2314       C  0.27380656  0.70710551  0.96966174     0.19470
F2315       F  0.28088884  0.68050857  0.96194280    -0.13380
F2316       F  0.32192589  0.71833438  0.97048345    -0.15750
F2317       F  0.21276929  0.75098661  0.98420875    -0.15750
F2318       F  0.25378343  0.78912607  0.99263671    -0.13380
C2319       C  0.48807361  0.87535306  0.95480655     0.24630
C2320       C  0.47549756  0.87121006  0.98140342    -0.23480
C2321       C  0.49238366  0.87336939  0.00548908     0.19530
C2322       C  0.52156810  0.87615173  0.00290899     0.24570
C2323       C  0.53446077  0.87657569  0.97614551    -0.23430
C2324       C  0.51713943  0.87825232  0.95221519     0.19470
F2325       F  0.52870866  0.87846165  0.92600573    -0.13380
F2326       F  0.47263136  0.87280238  0.93110718    -0.15750
F2327       F  0.53736249  0.87397384  0.02646934    -0.15750
F2328       F  0.48101254  0.86900296  0.03149257    -0.13380
C2329       C  0.59678653  0.86761083  0.59299041     0.24630
C2330       C  0.57608907  0.84646319  0.59373335    -0.23480
C2331       C  0.57953964  0.82216869  0.57736517     0.19530
C2332       C  0.60161662  0.82077110  0.55798911     0.24570
C2333       C  0.62021700  0.84372095  0.55481162    -0.23430
C2334       C  0.61855722  0.86636210  0.57350958     0.19470
F2335       F  0.63689639  0.88828302  0.57152960    -0.13380
F2336       F  0.59443692  0.89083134  0.60934586    -0.15750
F2337       F  0.60285272  0.79862059  0.54014982    -0.15750
F2338       F  0.55977390  0.80152795  0.57754163    -0.13380
C2339       C  0.46213229  0.82155834  0.54330174     0.24630
C2340       C  0.45465414  0.82632834  0.57154905    -0.23480
C2341       C  0.42690624  0.83233021  0.57850739     0.19530
C2342       C  0.40748778  0.83635441  0.55715966     0.24570
C2343       C  0.41554948  0.83368901  0.52887192    -0.23430
C2344       C  0.44253643  0.82497238  0.52204643     0.19470
F2345       F  0.45029867  0.82155473  0.49472883    -0.13380
F2346       F  0.48887126  0.81556851  0.53619474    -0.15750
F2347       F  0.38093897  0.84337443  0.56399964    -0.15750
F2348       F  0.41926019  0.83711036  0.60561946    -0.13380
C2349       C  0.51920961  0.75145345  0.70219883     0.24630
C2350       C  0.49670764  0.77047661  0.70142077    -0.23480
C2351       C  0.47566009  0.76739822  0.72216577     0.19530
C2352       C  0.47835583  0.74799841  0.74462324     0.24570
C2353       C  0.50173718  0.73039053  0.74663520    -0.23430
C2354       C  0.52153293  0.73130432  0.72448812     0.19470
F2355       F  0.54418848  0.71424679  0.72556037    -0.13380
F2356       F  0.54014125  0.75405572  0.68296844    -0.15750
F2357       F  0.45828676  0.74692314  0.76491560    -0.15750
F2358       F  0.45324819  0.78486026  0.72183809    -0.13380
C2359       C  0.55694976  0.15305868  0.55481710     0.24630
C2360       C  0.56401122  0.15962016  0.58257514    -0.23480
C2361       C  0.59145112  0.16752663  0.58891863     0.19530
C2362       C  0.61178027  0.16842086  0.56754944     0.24570
C2363       C  0.60463084  0.16147915  0.53983682    -0.23430
C2364       C  0.57708382  0.15399190  0.53361196     0.19470
F2365       F  0.56956243  0.14819011  0.50675167    -0.13380
F2366       F  0.53028938  0.14643122  0.54814415    -0.15750
F2367       F  0.63845948  0.17512024  0.57398461    -0.15750
F2368       F  0.59860831  0.17358828  0.61579034    -0.13380
C2369       C  0.42502260  0.12206590  0.57888237     0.24630
C2370       C  0.44738277  0.14097874  0.57397022    -0.23480
C2371       C  0.44763144  0.15783167  0.54919031     0.19530
C2372       C  0.42555598  0.15655444  0.53027603     0.24570
C2373       C  0.40274285  0.13840129  0.53572698    -0.23430
C2374       C  0.40295767  0.12077404  0.55991644     0.19470
F2375       F  0.38117162  0.10324095  0.56596741    -0.13380
F2376       F  0.42369867  0.10582173  0.60278797    -0.15750
F2377       F  0.42664247  0.17301285  0.50648855    -0.15750
F2378       F  0.46922839  0.17564029  0.54320653    -0.13380
C2379       C  0.52471542  0.28012704  0.72768443     0.24630
C2380       C  0.49841618  0.28437069  0.74021185    -0.23480
C2381       C  0.47562492  0.26881968  0.72994835     0.19530
C2382       C  0.47935263  0.24788805  0.70965815     0.24570
C2383       C  0.50589079  0.24215955  0.69868029    -0.23430
C2384       C  0.52840187  0.25924624  0.70697982     0.19470
F2385       F  0.55432129  0.25413184  0.69680770    -0.13380
F2386       F  0.54730889  0.29399072  0.73761493    -0.15750
F2387       F  0.45729724  0.23155257  0.70239431    -0.15750
F2388       F  0.45012819  0.27161803  0.74209101    -0.13380
C2389       C  0.50182131  0.02015196  0.61137011     0.24630
C2390       C  0.52465516  0.03289958  0.62483706    -0.23480
C2391       C  0.54756087  0.01553004  0.63174348     0.19530
C2392       C  0.54672103  0.98615348  0.62788028     0.24570
C2393       C  0.52303633  0.97289336  0.61665922    -0.23430
C2394       C  0.50105704  0.99047308  0.60722744     0.19470
F2395       F  0.47789528  0.97877689  0.59598453    -0.13380
F2396       F  0.47926919  0.03594528  0.60437389    -0.15750
F2397       F  0.56895302  0.97048681  0.63620110    -0.15750
F2398       F  0.57049220  0.02687688  0.64383017    -0.13380
C2399       C  0.41243056  0.11172987  0.73502082     0.24630
C2400       C  0.40268966  0.08686979  0.72224269    -0.23480
C2401       C  0.41156863  0.08121423  0.69476523     0.19530
C2402       C  0.43603772  0.09391659  0.68465608     0.24570
C2403       C  0.45059995  0.11312546  0.70162992    -0.23430
C2404       C  0.43712090  0.12436649  0.72520871     0.19470
F2405       F  0.44987331  0.14408587  0.74118602    -0.13380
F2406       F  0.40254390  0.11883505  0.76082438    -0.15750
F2407       F  0.44740991  0.08464094  0.66022473    -0.15750
F2408       F  0.40089848  0.05873908  0.68092564    -0.13380
C2409       C  0.43749584  0.96115589  0.69708416     0.24630
C2410       C  0.42785141  0.95996094  0.72496129    -0.23480
C2411       C  0.43474515  0.93682940  0.74252806     0.19530
C2412       C  0.45285150  0.91603337  0.73296866     0.24570
C2413       C  0.46425642  0.91818076  0.70562529    -0.23430
C2414       C  0.45539974  0.94020464  0.68731354     0.19470
F2415       F  0.46481457  0.94200477  0.66028216    -0.13380
F2416       F  0.43072520  0.98335321  0.67988660    -0.15750
F2417       F  0.46099831  0.89523864  0.75125831    -0.15750
F2418       F  0.42605534  0.93586691  0.76985634    -0.13380
C2419       C  0.32640520  0.06920411  0.86126566     0.24630
C2420       C  0.35178078  0.05531211  0.85654300    -0.23480
C2421       C  0.37579555  0.06470761  0.87072495     0.19530
C2422       C  0.37411094  0.08641823  0.89021343     0.24570
C2423       C  0.34846481  0.09929198  0.89590162    -0.23430
C2424       C  0.32477674  0.09094612  0.88072738     0.19470
F2425       F  0.29980449  0.10362448  0.88493324    -0.13380
F2426       F  0.30283356  0.06114222  0.84791858    -0.15750
F2427       F  0.39737819  0.09382677  0.90445851    -0.15750
F2428       F  0.40099259  0.05258096  0.86624672    -0.13380
C2429       C  0.37936004  0.93975217  0.89621148     0.24630
C2430       C  0.35707288  0.93968760  0.87726879    -0.23480
C2431       C  0.33311810  0.92361323  0.88346388     0.19530
C2432       C  0.33231028  0.90607390  0.90734300     0.24570
C2433       C  0.35547066  0.90456940  0.92527763    -0.23430
C2434       C  0.37851527  0.92239643  0.92017248     0.19470
F2435       F  0.40054965  0.92242804  0.93796710    -0.13380
F2436       F  0.40200195  0.95652122  0.89143929    -0.15750
F2437       F  0.30977377  0.88904497  0.91164884    -0.15750
F2438       F  0.31122295  0.92351604  0.86550034    -0.13380
C2439       C  0.29656141  0.00423756  0.69796577     0.24630
C2440       C  0.29111749  0.00019633  0.72702426    -0.23480
C2441       C  0.26371213  0.99241561  0.73523351     0.19530
C2442       C  0.24264913  0.98873490  0.71514304     0.24570
C2443       C  0.24817378  0.99256464  0.68609315    -0.23430
C2444       C  0.27550874  0.00051042  0.67788991     0.19470
F2445       F  0.28197917  0.00528506  0.65029261    -0.13380
F2446       F  0.32231435  0.01206287  0.68874490    -0.15750
F2447       F  0.21688030  0.98088016  0.72429694    -0.15750
F2448       F  0.25716573  0.98769564  0.76281753    -0.13380
C2449       C  0.58706943  0.10019497  0.78572742     0.24630
C2450       C  0.60880425  0.08717478  0.77069285    -0.23480
C2451       C  0.61791746  0.09972318  0.74512436     0.19530
C2452       C  0.60172059  0.12073505  0.73206187     0.24570
C2453       C  0.57639403  0.12888553  0.74443227    -0.23430
C2454       C  0.57059873  0.12062647  0.77238777     0.19470
F2455       F  0.54653341  0.12880284  0.78495222    -0.13380
F2456       F  0.57898184  0.08987869  0.81144613    -0.15750
F2457       F  0.60795144  0.12894605  0.70515473    -0.15750
F2458       F  0.63952058  0.08851098  0.73055651    -0.13380
C2459       C  0.57902588  0.96406806  0.73019888     0.24630
C2460       C  0.60828372  0.96482946  0.72691300    -0.23480
C2461       C  0.62239217  0.94024816  0.71864457     0.19530
C2462       C  0.60728391  0.91571558  0.71287162     0.24570
C2463       C  0.57837569  0.91529450  0.71695149    -0.23430
C2464       C  0.56451994  0.93920929  0.72638658     0.19470
F2465       F  0.53631570  0.93934560  0.72898187    -0.13380
F2466       F  0.56395171  0.98742593  0.73649105    -0.15750
F2467       F  0.62051144  0.89284689  0.70225126    -0.15750
F2468       F  0.65043820  0.94033359  0.71507078    -0.13380
C2469       C  0.63525582  0.93267159  0.88703695     0.24630
C2470       C  0.66018125  0.94587806  0.87768531    -0.23480
C2471       C  0.68533356  0.93702589  0.89036450     0.19530
C2472       C  0.68531630  0.91705525  0.91271190     0.24570
C2473       C  0.66020270  0.90538500  0.92318409    -0.23430
C2474       C  0.63528021  0.91287653  0.90947095     0.19470
F2475       F  0.61065163  0.90121881  0.91791131    -0.13380
F2476       F  0.61049321  0.93941014  0.87508468    -0.15750
F2477       F  0.70989731  0.91032929  0.92503822    -0.15750
F2478       F  0.71005561  0.94859716  0.88215188    -0.13380
C2479       C  0.67172714  0.07793177  0.90944800     0.24630
C2480       C  0.64864565  0.06915767  0.89356464    -0.23480
C2481       C  0.62417591  0.08560726  0.89396215     0.19530
C2482       C  0.62266514  0.10971007  0.91020757     0.24570
C2483       C  0.64537647  0.11797075  0.92653595    -0.23430
C2484       C  0.67010231  0.10223551  0.92573991     0.19470
F2485       F  0.69222652  0.10957740  0.94174063    -0.13380
F2486       F  0.69578004  0.06291856  0.90951548    -0.15750
F2487       F  0.59880175  0.12506007  0.91002424    -0.15750
F2488       F  0.60174973  0.07902566  0.87802939    -0.13380
C2489       C  0.75875193  0.99756320  0.76107587     0.24630
C2490       C  0.73544712  0.01538088  0.75761002    -0.23480
C2491       C  0.73537351  0.03460816  0.73439883     0.19530
C2492       C  0.75692493  0.03487712  0.71449630     0.24570
C2493       C  0.77958205  0.01640074  0.71726163    -0.23430
C2494       C  0.78067464  0.99813643  0.74107264     0.19470
F2495       F  0.80201404  0.97957944  0.74398856    -0.13380
F2496       F  0.75966963  0.97856532  0.78287814    -0.15750
F2497       F  0.75537711  0.05304017  0.69200667    -0.15750
F2498       F  0.71409016  0.05310834  0.73053345    -0.13380
C2499       C  0.48952904  0.01651706  0.84835069     0.24630
C2500       C  0.47641120  0.99143546  0.83968277    -0.23480
C2501       C  0.49259433  0.96681531  0.83743583     0.19530
C2502       C  0.52166548  0.96803719  0.84049154     0.24570
C2503       C  0.53524524  0.99402049  0.84535522    -0.23430
C2504       C  0.51868771  0.01779646  0.85119294     0.19470
F2505       F  0.53097130  0.04334549  0.85523954    -0.13380
F2506       F  0.47458607  0.04077867  0.85021712    -0.15750
F2507       F  0.53692206  0.94471654  0.83450765    -0.15750
F2508       F  0.48064890  0.94232188  0.82891836    -0.13380
C2509       C  0.87654203  0.58097592  0.57499145     0.24630
C2510       C  0.85032792  0.57148021  0.58472333    -0.23480
C2511       C  0.82625899  0.58525861  0.57501211     0.19530
C2512       C  0.82825060  0.60661464  0.55430203     0.24570
C2513       C  0.85439830  0.61457229  0.54294123    -0.23430
C2514       C  0.87855913  0.60228876  0.55437628     0.19470
F2515       F  0.90426340  0.61038028  0.54519212    -0.13380
F2516       F  0.90037201  0.56928128  0.58504503    -0.15750
F2517       F  0.80438032  0.61820247  0.54428206    -0.15750
F2518       F  0.80063424  0.57694246  0.58421671    -0.13380
C2519       C  0.85111680  0.45883176  0.54716830     0.24630
C2520       C  0.83844977  0.45217997  0.57291993    -0.23480
C2521       C  0.82024059  0.42897169  0.57553301     0.19530
C2522       C  0.81624555  0.41118811  0.55265572     0.24570
C2523       C  0.83001038  0.41707026  0.52692074    -0.23430
C2524       C  0.84666041  0.44180398  0.52419187     0.19470
F2525       F  0.85986280  0.44909683  0.49968814    -0.13380
F2526       F  0.86796953  0.48191538  0.54432541    -0.15750
F2527       F  0.79969326  0.38796783  0.55594550    -0.15750
F2528       F  0.80722689  0.42303333  0.60045307    -0.13380
C2529       C  0.75517132  0.53081480  0.70906993     0.24630
C2530       C  0.78340475  0.52759726  0.71674480    -0.23480
C2531       C  0.78938440  0.52284299  0.74551370     0.19530
C2532       C  0.76803275  0.52092547  0.76575972     0.24570
C2533       C  0.73976487  0.52365858  0.75807408    -0.23430
C2534       C  0.73374234  0.52887953  0.72938657     0.19470
F2535       F  0.70702381  0.53174314  0.72070701    -0.13380
F2536       F  0.74800761  0.53541653  0.68173124    -0.15750
F2537       F  0.77533654  0.51576551  0.79298110    -0.15750
F2538       F  0.81599297  0.51920279  0.75427351    -0.13380
C2539       C  0.13689964  0.58095572  0.57165489     0.24630
C2540       C  0.15989277  0.56353483  0.57734666    -0.23480
C2541       C  0.18460614  0.56779728  0.56161984     0.19530
C2542       C  0.18504289  0.58667922  0.53833017     0.24570
C2543       C  0.16084685  0.60154535  0.53076536    -0.23430
C2544       C  0.13746023  0.59991934  0.54877929     0.19470
F2545       F  0.11419575  0.61512714  0.54285829    -0.13380
F2546       F  0.11316829  0.57839509  0.58722271    -0.15750
F2547       F  0.20804280  0.58813109  0.52160374    -0.15750
F2548       F  0.20736999  0.55167940  0.56695987    -0.13380
C2549       C  0.11676835  0.43117391  0.55553862     0.24630
C2550       C  0.14195561  0.44420954  0.56316055    -0.23480
C2551       C  0.16679645  0.43621319  0.54965625     0.19530
C2552       C  0.16667588  0.41468077  0.53009495     0.24570
C2553       C  0.14169499  0.40060540  0.52355966    -0.23430
C2554       C  0.11664015  0.40962023  0.53600523     0.19470
F2555       F  0.09184201  0.39745047  0.52970824    -0.13380
F2556       F  0.09209853  0.43883347  0.56722802    -0.15750
F2557       F  0.19131629  0.40737006  0.51812834    -0.15750
F2558       F  0.19154480  0.44855159  0.55583138    -0.13380
C2559       C  0.26856726  0.49550680  0.72139409     0.24630
C2560       C  0.26074954  0.49160305  0.75003833    -0.23480
C2561       C  0.23197809  0.49218531  0.75646113     0.19530
C2562       C  0.21198330  0.49674485  0.73539604     0.24570
C2563       C  0.21967925  0.50091212  0.70677754    -0.23430
C2564       C  0.24839265  0.49998149  0.70014618     0.19470
F2565       F  0.25715782  0.50373279  0.67307040    -0.13380
F2566       F  0.29583369  0.49535120  0.71378187    -0.15750
F2567       F  0.18478404  0.49662369  0.74334396    -0.15750
F2568       F  0.22276118  0.48832040  0.78339369    -0.13380
C2569       C  0.98582844  0.47265228  0.61145968     0.24630
C2570       C  0.96836582  0.49606345  0.60601536    -0.23480
C2571       C  0.98097102  0.52135223  0.59600289     0.19530
C2572       C  0.01027870  0.52407484  0.59456022     0.24570
C2573       C  0.02782430  0.50145299  0.60261155    -0.23430
C2574       C  0.01507170  0.47519985  0.60938906     0.19470
F2575       F  0.03102215  0.45285205  0.61750198    -0.13380
F2576       F  0.97467916  0.44804375  0.62173429    -0.15750
F2577       F  0.02151791  0.54999461  0.58883728    -0.15750
F2578       F  0.96508944  0.54468281  0.59137357    -0.13380
C2579       C  0.09343828  0.41275121  0.71998364     0.24630
C2580       C  0.06615376  0.40541972  0.71236040    -0.23480
C2581       C  0.05292496  0.42203962  0.69179966     0.19530
C2582       C  0.06174325  0.44993713  0.68733007     0.24570
C2583       C  0.08633291  0.45992093  0.69994932    -0.23430
C2584       C  0.10335957  0.44024611  0.71428878     0.19470
F2585       F  0.12834125  0.44818507  0.72481406    -0.13380
F2586       F  0.10769691  0.39566398  0.73807188    -0.15750
F2587       F  0.04533912  0.46741924  0.67182958    -0.15750
F2588       F  0.02750432  0.41421572  0.68216897    -0.13380
C2589       C  0.93874410  0.42341990  0.70470230     0.24630
C2590       C  0.94519839  0.42157363  0.73329080    -0.23480
C2591       C  0.92975113  0.43690798  0.75308456     0.19530
C2592       C  0.91221178  0.45847402  0.74383531     0.24570
C2593       C  0.90927167  0.46337263  0.71492661    -0.23430
C2594       C  0.92009007  0.44401368  0.69554809     0.19470
F2595       F  0.91554853  0.44754930  0.66748693    -0.13380
F2596       F  0.95289738  0.40786758  0.68557931    -0.15750
F2597       F  0.90091140  0.47648124  0.76270808    -0.15750
F2598       F  0.93436583  0.43339234  0.78112672    -0.13380
C2599       C  0.92084175  0.32936079  0.88574535     0.24630
C2600       C  0.93943366  0.35182648  0.88101522    -0.23480
C2601       C  0.94158785  0.37357612  0.90072306     0.19530
C2602       C  0.92377278  0.37392302  0.92399589     0.24570
C2603       C  0.90360816  0.35254659  0.92763633    -0.23430
C2604       C  0.90293237  0.32971681  0.90883746     0.19470
F2605       F  0.88344787  0.30887503  0.91136475    -0.13380
F2606       F  0.91847070  0.30823808  0.86681653    -0.15750
F2607       F  0.92573626  0.39545971  0.94249367    -0.15750
F2608       F  0.96061098  0.39471284  0.89710291    -0.13380
C2609       C  0.04269300  0.34038246  0.88643690     0.24630
C2610       C  0.04884261  0.34848808  0.85858334    -0.23480
C2611       C  0.07419855  0.36189112  0.85188416     0.19530
C2612       C  0.09362317  0.36668441  0.87309447     0.24570
C2613       C  0.08743104  0.35838638  0.90101828    -0.23430
C2614       C  0.06183155  0.34529386  0.90753819     0.19470
F2615       F  0.05532492  0.33744087  0.93449995    -0.13380
F2616       F  0.01755250  0.32884219  0.89332850    -0.15750
F2617       F  0.11863205  0.37853166  0.86632628    -0.15750
F2618       F  0.07975773  0.37080727  0.82504715    -0.13380
C2619       C  0.98852496  0.27029346  0.67930736     0.24630
C2620       C  0.99748575  0.24243257  0.68551643    -0.23480
C2621       C  0.00610396  0.23637069  0.71345165     0.19530
C2622       C  0.00598391  0.25741439  0.73425738     0.24570
C2623       C  0.99724592  0.28537385  0.72796741    -0.23430
C2624       C  0.98836946  0.29130801  0.70008591     0.19470
F2625       F  0.97886028  0.31747695  0.69283436    -0.13380
F2626       F  0.97922733  0.27724849  0.65312335    -0.15750
F2627       F  0.01496567  0.25035085  0.76052918    -0.15750
F2628       F  0.01531153  0.21008037  0.72069281    -0.13380
C2629       C  0.08842025  0.63408779  0.72226467     0.24630
C2630       C  0.08606682  0.62509295  0.75040870    -0.23480
C2631       C  0.10625361  0.60673415  0.76191587     0.19530
C2632       C  0.12314123  0.59128456  0.74391002     0.24570
C2633       C  0.11975635  0.59492824  0.71484330    -0.23430
C2634       C  0.10610928  0.61930663  0.70441165     0.19470
F2635       F  0.10454821  0.62424679  0.67615955    -0.13380
F2636       F  0.06994912  0.65278379  0.71106467    -0.15750
F2637       F  0.13752180  0.56878547  0.75442896    -0.15750
F2638       F  0.10539532  0.59943296  0.78975439    -0.13380
C2639       C  0.92360515  0.61742899  0.70646638     0.24630
C2640       C  0.90759270  0.59519957  0.71868507    -0.23480
C2641       C  0.90950340  0.58977154  0.74770963     0.19530
C2642       C  0.93144595  0.60158615  0.76268833     0.24570
C2643       C  0.95113897  0.61909509  0.74873153    -0.23430
C2644       C  0.94585644  0.62893150  0.72132754     0.19470
F2645       F  0.96416820  0.64653943  0.70783169    -0.13380
F2646       F  0.92115950  0.62378370  0.67854439    -0.15750
F2647       F  0.93537493  0.59330493  0.78993068    -0.15750
F2648       F  0.89370616  0.56911524  0.76020508    -0.13380
C2649       C  0.05589081  0.65307350  0.91422517     0.24630
C2650       C  0.06077921  0.65996557  0.88575386    -0.23480
C2651       C  0.08785279  0.66769704  0.87692909     0.19530
C2652       C  0.10983983  0.66792734  0.89643139     0.24570
C2653       C  0.10480112  0.66076286  0.92495860    -0.23430
C2654       C  0.07751534  0.65369215  0.93360000     0.19470
F2655       F  0.07162888  0.64772357  0.96113834    -0.13380
F2656       F  0.02982732  0.64650055  0.92351757    -0.15750
F2657       F  0.13604466  0.67403255  0.88730625    -0.15750
F2658       F  0.09310800  0.67408052  0.84937317    -0.13380
C2659       C  0.89484309  0.65999444  0.91964439     0.24630
C2660       C  0.90305969  0.66845618  0.94652461    -0.23480
C2661       C  0.93118249  0.67341997  0.95221779     0.19530
C2662       C  0.95108871  0.66982459  0.93109403     0.24570
C2663       C  0.94301543  0.66015933  0.90450083    -0.23430
C2664       C  0.91478758  0.65541117  0.89884173     0.19470
F2665       F  0.90649510  0.64711214  0.87293361    -0.13380
F2666       F  0.86758399  0.65588185  0.91360273    -0.15750
F2667       F  0.97825205  0.67505853  0.93677817    -0.15750
F2668       F  0.93929533  0.68140812  0.97828284    -0.13380
C2669       C  0.03393892  0.76794503  0.72702230     0.24630
C2670       C  0.01122406  0.78663294  0.72498617    -0.23480
C2671       C  0.98975908  0.78396684  0.74524722     0.19530
C2672       C  0.99066986  0.76269912  0.76653600     0.24570
C2673       C  0.01261958  0.74296382  0.76745927    -0.23430
C2674       C  0.03452576  0.74625761  0.74780045     0.19470
F2675       F  0.05601296  0.72766252  0.74795994    -0.13380
F2676       F  0.05442241  0.76906368  0.70717330    -0.15750
F2677       F  0.96880335  0.75977860  0.78463564    -0.15750
F2678       F  0.96676540  0.80045215  0.74298950    -0.13380
C2679       C  0.01577899  0.52248015  0.83107359     0.24630
C2680       C  0.99399658  0.53635975  0.84521172    -0.23480
C2681       C  0.97242625  0.51935037  0.85696078     0.19530
C2682       C  0.97184955  0.48954560  0.85286026     0.24570
C2683       C  0.99266982  0.47628377  0.83666486    -0.23430
C2684       C  0.01507339  0.49312312  0.82680050     0.19470
F2685       F  0.03524566  0.48144132  0.81056521    -0.13380
F2686       F  0.03649095  0.53794844  0.81857532    -0.15750
F2687       F  0.94967543  0.47419775  0.86240159    -0.15750
F2688       F  0.95064426  0.53183238  0.87009259    -0.13380
loop_ 
_geom_bond_atom_site_label_1 
_geom_bond_atom_site_label_2 
_geom_bond_distance 
_geom_bond_site_symmetry_2 
_ccdc_geom_bond_type 
O1           Ni7   1.899   1_655  S
O1           C22   1.259       .  A
O2          Ni25   1.913       .  S
O2           C11   1.269       .  A
O3           Ni7   1.891       .  S
O3          Ni25   1.903       .  S
O3          Ni19   1.888   1_455  S
O3           H26   0.966       .  S
C4           O21   1.271       .  A
C4           O13   1.274       .  A
C4         C2663   1.459       .  S
O5          Ni24   1.954   1_455  S
O5           C11   1.277       .  A
O6          Ni24   1.916   1_455  S
O6            C8   1.276       .  A
Ni7          O10   1.892       .  S
Ni7          O12   1.896   1_455  S
C8           O18   1.285       .  A
C8         C2650   1.476       .  S
O9          Ni25   1.922       .  S
O9           C15   1.276       .  A
O10          C15   1.275       .  A
C11        C2673   1.498       .  S
O12          C14   1.264       .  A
O13         Ni24   1.934       .  S
C14          O20   1.264       .  A
C14        C2643   1.465       .  S
C15        C2630   1.458       .  S
H16          O17   0.966       .  S
O17         Ni25   1.919   1_655  S
O17         Ni19   1.936       .  S
O17         Ni24   1.903       .  S
O18         Ni19   1.956   1_455  S
Ni19         O23   1.984       .  S
Ni19         O21   1.895       .  S
O20         Ni25   1.919   1_655  S
C22          O23   1.284       .  A
C22        C2680   1.504       .  S
O27         Ni33   1.972       .  S
O27          C48   1.284       .  A
O28         Ni51   1.976       .  S
O28          C37   1.280       .  A
O29         Ni33   1.893       .  S
O29         Ni51   1.930       .  S
O29         Ni45   1.906   1_655  S
O29          H52   0.966       .  S
C30          O47   1.280       .  A
C30          O39   1.270       .  A
C30        C2580   1.452       .  S
O31         Ni50   1.903   1_655  S
O31          C37   1.262       .  A
O32         Ni50   1.907   1_655  S
O32          C34   1.268       .  A
Ni33         O36   1.946       .  S
Ni33         O38   1.916   1_655  S
C34          O44   1.259       .  A
C34        C2590   1.446       .  S
O35         Ni51   1.876       .  S
O35          C41   1.272       .  A
O36          C41   1.282       .  A
C37        C2683   1.504       .  S
O38          C40   1.274       .  A
O39         Ni50   1.879       .  S
C40          O46   1.268       .  A
C40        C2610   1.445       .  S
C41        C2600   1.455       .  S
H42          O43   0.965       .  S
O43         Ni51   1.890   1_455  S
O43         Ni45   1.908       .  S
O43         Ni50   1.878       .  S
O44         Ni45   1.897   1_655  S
Ni45         O49   1.915   1_455  S
Ni45         O47   1.939       .  S
O46         Ni51   1.906   1_455  S
C48          O49   1.273       .  A
C48        C2623   1.516       .  S
O53         Ni59   1.907       .  S
O53          C74   1.262       .  A
O54         Ni77   1.908       .  S
O54          C63   1.269       .  A
O55         Ni59   1.908       .  S
O55         Ni77   1.931       .  S
O55         Ni71   1.897       .  S
O55          H78   0.965       .  S
C56          O73   1.268       .  A
C56          O65   1.278       .  A
C56        C2550   1.470       .  S
O57         Ni76   1.969       .  S
O57          C63   1.282       .  A
O58         Ni76   1.918       .  S
O58          C60   1.277       .  A
Ni59         O62   1.889       .  S
Ni59         O64   1.904       .  S
C60          O70   1.283       .  A
C60        C2540   1.481       .  S
O61         Ni77   1.910       .  S
O61          C67   1.267       .  A
O62          C67   1.268       .  A
C63        C2563   1.517       .  S
O64          C66   1.268       .  A
O65         Ni76   1.936       .  S
C66          O72   1.265       .  A
C66        C2583   1.479       .  S
C67        C2633   1.458       .  S
H68          O69   0.967       .  S
O69         Ni77   1.894       .  S
O69         Ni71   1.920       .  S
O69         Ni76   1.904       .  S
O70         Ni71   1.944       .  S
Ni71         O75   1.969       .  S
Ni71         O73   1.876       .  S
O72         Ni77   1.908       .  S
C74          O75   1.283       .  A
C74        C2573   1.501       .  S
O79         Ni85   1.943       .  S
O79         C100   1.276       .  A
O80        Ni103   1.975       .  S
O80          C89   1.282       .  A
O81         Ni85   1.897       .  S
O81        Ni103   1.928       .  S
O81         Ni97   1.910       .  S
O81         H104   0.967       .  S
C82          O99   1.284       .  A
C82          O91   1.272       .  A
C82        C2640   1.464       .  S
O83        Ni102   1.907       .  S
O83          C89   1.261       .  A
O84        Ni102   1.901       .  S
O84          C86   1.265       .  A
Ni85         O88   1.923       .  S
Ni85         O90   1.911       .  S
C86          O96   1.257       .  A
C86        C2593   1.446       .  S
O87        Ni103   1.891       .  S
O87          C93   1.274       .  A
O88          C93   1.275       .  A
C89        C2570   1.502       .  S
O90          C92   1.273       .  A
O91        Ni102   1.882       .  S
C92          O98   1.274       .  A
C92        C2510   1.474       .  S
C93        C2520   1.446       .  S
H94          O95   0.965       .  S
O95        Ni103   1.896       .  S
O95         Ni97   1.907       .  S
O95        Ni102   1.890       .  S
O96         Ni97   1.899       .  S
Ni97        O101   1.915       .  S
Ni97         O99   1.946       .  S
O98        Ni103   1.921       .  S
C100        O101   1.272       .  A
C100       C2530   1.504       .  S
O105       Ni111   1.892   1_565  S
O105        C126   1.266       .  A
O106       Ni129   1.887       .  S
O106        C115   1.266       .  A
O107       Ni111   1.912   1_565  S
O107       Ni129   1.940   1_565  S
O107       Ni123   1.916   1_565  S
O107        H130   0.967       .  S
C108        O125   1.277       .  A
C108        O117   1.283       .  A
C108       C2480   1.475       .  S
O109       Ni128   1.968       .  S
O109        C115   1.284       .  A
O110       Ni128   1.924   1_565  S
O110        C112   1.275       .  A
Ni111       O114   1.889       .  S
Ni111       O116   1.892       .  S
C112        O122   1.277       .  A
C112       C2470   1.504       .  S
O113       Ni129   1.929   1_565  S
O113        C119   1.257       .  A
O114        C119   1.246   1_545  A
C115       C2490   1.499       .  S
O116        C118   1.272       .  A
O117       Ni128   1.932       .  S
C118        O124   1.289       .  A
C118       C2450   1.478       .  S
C119       C2460   1.465       .  S
H120        O121   0.965       .  S
O121       Ni129   1.869       .  S
O121       Ni123   1.912       .  S
O121       Ni128   1.890       .  S
O122       Ni123   1.933   1_565  S
Ni123       O127   1.966       .  S
Ni123       O125   1.890       .  S
O124       Ni129   1.983       .  S
C126        O127   1.285   1_565  A
C126       C2503   1.487       .  S
O131       Ni137   1.918   1_565  S
O131        C152   1.266       .  A
O132       Ni155   1.921       .  S
O132        C141   1.276       .  A
O133       Ni137   1.883       .  S
O133       Ni155   1.903       .  S
O133       Ni149   1.893   1_545  S
O133        H156   0.965       .  S
C134        O151   1.271       .  A
C134        O143   1.277       .  A
C134       C2430   1.456       .  S
O135       Ni154   1.946   1_545  S
O135        C141   1.278       .  A
O136       Ni154   1.916   1_545  S
O136        C138   1.274       .  A
Ni137       O140   1.888       .  S
Ni137       O142   1.904       .  S
C138        O148   1.272       .  A
C138       C2420   1.479       .  S
O139       Ni155   1.943       .  S
O139        C145   1.282       .  A
O140        C145   1.274       .  A
C141       C2440   1.508       .  S
O142        C144   1.266   1_545  A
O143       Ni154   1.933       .  S
C144        O150   1.267       .  A
C144       C2410   1.456       .  S
C145       C2400   1.463       .  S
H146        O147   0.967       .  S
O147       Ni155   1.909   1_565  S
O147       Ni149   1.918       .  S
O147       Ni154   1.899       .  S
O148       Ni149   1.923   1_545  S
Ni149       O153   1.950       .  S
Ni149       O151   1.882       .  S
O150       Ni155   1.917   1_565  S
C152        O153   1.275       .  A
C152       C2500   1.489       .  S
O157       Ni163   1.963       .  S
O157        C178   1.279       .  A
O158       Ni181   1.966       .  S
O158        C167   1.284       .  A
O159       Ni163   1.898       .  S
O159       Ni181   1.922       .  S
O159       Ni175   1.890       .  S
O159        H182   0.966       .  S
C160        O177   1.261       .  A
C160        O169   1.260       .  A
C160       C2453   1.465       .  S
O161       Ni180   1.906       .  S
O161        C167   1.269       .  A
O162       Ni180   1.891       .  S
O162        C164   1.272       .  A
Ni163       O166   1.947       .  S
Ni163       O168   1.910       .  S
C164        O174   1.284       .  A
C164       C2403   1.473       .  S
O165       Ni181   1.894       .  S
O165        C171   1.273       .  A
O166        C171   1.282       .  A
C167       C2390   1.505       .  S
O168        C170   1.271       .  A
O169       Ni180   1.914       .  S
C170        O176   1.276       .  A
C170       C2360   1.464       .  S
C171       C2370   1.479       .  S
H172        O173   0.966       .  S
O173       Ni181   1.927       .  S
O173       Ni175   1.926       .  S
O173       Ni180   1.915       .  S
O174       Ni175   1.961       .  S
Ni175       O179   1.907       .  S
Ni175       O177   1.923       .  S
O176       Ni181   1.935       .  S
C178        O179   1.269       .  A
C178       C2383   1.491       .  S
O183       Ni189   1.948       .  S
O183        C204   1.273       .  A
O184       Ni207   1.956       .  S
O184        C193   1.284       .  A
O185       Ni189   1.892       .  S
O185       Ni207   1.933       .  S
O185       Ni201   1.926       .  S
O185        H208   0.966       .  S
C186        O203   1.268       .  A
C186        O195   1.281       .  A
C186       C2463   1.436       .  S
O187       Ni206   1.910       .  S
O187        C193   1.267       .  A
O188       Ni206   1.900       .  S
O188        C190   1.262       .  A
Ni189       O192   1.912       .  S
Ni189       O194   1.898       .  S
C190        O200   1.266       .  A
C190       C2413   1.474       .  S
O191       Ni207   1.914       .  S
O191        C197   1.267       .  A
O192        C197   1.261       .  A
C193       C2350   1.491       .  S
O194        C196   1.282       .  A
O195       Ni206   1.934       .  S
C196        O202   1.295       .  A
C196       C2330   1.471       .  S
C197       C2340   1.457       .  S
H198        O199   0.967       .  S
O199       Ni207   1.871       .  S
O199       Ni201   1.881       .  S
O199       Ni206   1.886       .  S
O200       Ni201   1.919       .  S
Ni201       O205   1.922       .  S
Ni201       O203   1.872       .  S
O202       Ni207   1.975       .  S
C204        O205   1.270       .  A
C204       C2393   1.507       .  S
O209       Ni215   1.956       .  S
O209        C230   1.280       .  A
O210       Ni233   1.957       .  S
O210        C219   1.276       .  A
O211       Ni215   1.908       .  S
O211       Ni233   1.919       .  S
O211       Ni227   1.897       .  S
O211        H234   0.966       .  S
C212        O229   1.277       .  A
C212        O221   1.273       .  A
C212       C2280   1.462       .  S
O213       Ni232   1.914   1_556  S
O213        C219   1.264       .  A
O214       Ni232   1.903   1_556  S
O214        C216   1.266       .  A
Ni215       O218   1.933       .  S
Ni215       O220   1.922   1_556  S
C216        O226   1.270       .  A
C216       C2290   1.473       .  S
O217       Ni233   1.877       .  S
O217        C223   1.271       .  A
O218        C223   1.279       .  A
C219       C2320   1.492       .  S
O220        C222   1.274       .  A
O221       Ni232   1.888       .  S
C222        O228   1.274       .  A
C222       C2300   1.482       .  S
C223       C2433   1.461       .  S
H224        O225   0.966       .  S
O225       Ni233   1.892   1_554  S
O225       Ni227   1.919   1_554  S
O225       Ni232   1.897       .  S
O226       Ni227   1.934       .  S
Ni227       O231   1.918       .  S
Ni227       O229   1.931   1_556  S
O228       Ni233   1.926   1_554  S
C230        O231   1.273       .  A
C230       C2310   1.513       .  S
O235       Ni241   1.977       .  S
O235        C256   1.282       .  A
O236       Ni259   1.970       .  S
O236        C245   1.288       .  A
O237       Ni241   1.908       .  S
O237       Ni259   1.927       .  S
O237       Ni253   1.890       .  S
O237        H260   0.966   1_556  S
C238        O255   1.253       .  A
C238        O247   1.257       .  A
C238       C2250   1.456       .  S
O239       Ni258   1.893       .  S
O239        C245   1.267       .  A
O240       Ni258   1.892       .  S
O240        C242   1.270   1_556  A
Ni241       O244   1.941   1_556  S
Ni241       O246   1.926       .  S
C242        O252   1.283   1_554  A
C242       C2240   1.472       .  S
O243       Ni259   1.905   1_554  S
O243        C249   1.275       .  A
O244        C249   1.279       .  A
C245       C2323   1.495       .  S
O246        C248   1.280       .  A
O247       Ni258   1.893       .  S
C248        O254   1.283       .  A
C248       C2473   1.496       .  S
C249       C2260   1.490       .  S
H250        O251   0.966       .  S
O251       Ni259   1.918       .  S
O251       Ni253   1.930       .  S
O251       Ni258   1.913       .  S
O252       Ni253   1.967       .  S
Ni253       O257   1.884       .  S
Ni253       O255   1.912       .  S
O254       Ni259   1.948       .  S
C256        O257   1.262       .  A
C256       C2270   1.512       .  S
O261       Ni267   1.902       .  S
O261        C282   1.268       .  A
O262       Ni285   1.909       .  S
O262        C271   1.272       .  A
O263       Ni267   1.918       .  S
O263       Ni285   1.929       .  S
O263       Ni279   1.920       .  S
O263        H286   0.966       .  S
C264        O281   1.270       .  A
C264        O273   1.275       .  A
C264       C2210   1.459       .  S
O265       Ni284   1.943       .  S
O265        C271   1.276       .  A
O266       Ni284   1.898       .  S
O266        C268   1.271       .  A
Ni267       O270   1.895       .  S
Ni267       O272   1.887       .  S
C268        O278   1.279       .  A
C268       C2200   1.458       .  S
O269       Ni285   1.937       .  S
O269        C275   1.262       .  A
O270        C275   1.253       .  A
C271       C2220   1.494       .  S
O272        C274   1.272       .  A
O273       Ni284   1.926       .  S
C274        O280   1.286       .  A
C274       C2283   1.475       .  S
C275       C2243   1.464       .  S
H276        O277   0.966       .  S
O277       Ni285   1.898       .  S
O277       Ni279   1.922       .  S
O277       Ni284   1.899       .  S
O278       Ni279   1.937       .  S
Ni279       O283   1.956       .  S
Ni279       O281   1.893       .  S
O280       Ni285   1.963       .  S
C282        O283   1.282       .  A
C282       C2233   1.488       .  S
O287       Ni293   1.956       .  S
O287        C308   1.279       .  A
O288       Ni311   1.950       .  S
O288        C297   1.276       .  A
O289       Ni293   1.896       .  S
O289       Ni311   1.910       .  S
O289       Ni305   1.885       .  S
O289        H312   0.967       .  S
C290        O307   1.277       .  A
C290        O299   1.275       .  A
C290       C2253   1.455       .  S
O291       Ni310   1.919       .  S
O291        C297   1.266       .  A
O292       Ni310   1.905       .  S
O292        C294   1.266       .  A
Ni293       O296   1.940       .  S
Ni293       O298   1.919       .  S
C294        O304   1.273       .  A
C294       C2293   1.472       .  S
O295       Ni311   1.879       .  S
O295        C301   1.275       .  A
O296        C301   1.283       .  A
C297       C2230   1.487       .  S
O298        C300   1.270       .  A
O299       Ni310   1.892       .  S
C300        O306   1.271       .  A
C300       C2180   1.475       .  S
C301       C2190   1.461       .  S
H302        O303   0.966       .  S
O303       Ni311   1.892       .  S
O303       Ni305   1.906       .  S
O303       Ni310   1.884       .  S
O304       Ni305   1.941       .  S
Ni305       O309   1.913       .  S
Ni305       O307   1.930       .  S
O306       Ni311   1.922       .  S
C308        O309   1.275       .  A
C308       C2353   1.492       .  S
O313       Ni319   1.919       .  S
O313        C334   1.269       .  A
O314       Ni337   1.911       .  S
O314        C323   1.270       .  A
O315       Ni319   1.877       .  S
O315       Ni337   1.900       .  S
O315       Ni331   1.899   1_556  S
O315        H338   0.964       .  S
C316        O333   1.271       .  A
C316        O325   1.275       .  A
C316       C2160   1.449       .  S
O317       Ni336   1.959   1_556  S
O317        C323   1.277       .  A
O318       Ni336   1.912   1_556  S
O318        C320   1.276       .  A
Ni319       O322   1.906       .  S
Ni319       O324   1.912       .  S
C320        O330   1.276       .  A
C320       C2660   1.450       .  S
O321       Ni337   1.922       .  S
O321        C327   1.277       .  A
O322        C327   1.277       .  A
C323       C2273   1.509       .  S
O324        C326   1.268       .  A
O325       Ni336   1.930       .  S
C326        O332   1.263       .  A
C326       C2143   1.458   1_556  S
C327       C2150   1.469       .  S
H328        O329   0.968       .  S
O329       Ni337   1.917   1_554  S
O329       Ni331   1.934       .  S
O329       Ni336   1.909       .  S
O330       Ni331   1.929   1_556  S
Ni331       O335   1.985   1_554  S
Ni331       O333   1.896       .  S
O332       Ni337   1.898       .  S
C334        O335   1.284       .  A
C334       C2170   1.498       .  S
O339       Ni345   1.903   1_556  S
O339        C360   1.260       .  A
O340       Ni363   1.894       .  S
O340        C349   1.266       .  A
O341       Ni345   1.887       .  S
O341       Ni363   1.910   1_554  S
O341       Ni357   1.905   1_554  S
O341        H364   0.966       .  S
C342        O359   1.283       .  A
C342        O351   1.283       .  A
C342       C2603   1.465       .  S
O343       Ni362   1.974       .  S
O343        C349   1.285       .  A
O344       Ni362   1.918   1_554  S
O344        C346   1.273       .  A
Ni345       O348   1.896       .  S
Ni345       O350   1.900   1_554  S
C346        O356   1.272       .  A
C346       C2120   1.469       .  S
O347       Ni363   1.910   1_554  S
O347        C353   1.267       .  A
O348        C353   1.274       .  A
C349       C2130   1.507       .  S
O350        C352   1.266       .  A
O351       Ni362   1.928       .  S
C352        O358   1.266       .  A
C352       C2110   1.457       .  S
C353       C2100   1.447       .  S
H354        O355   0.966       .  S
O355       Ni363   1.877       .  S
O355       Ni357   1.916       .  S
O355       Ni362   1.889       .  S
O356       Ni357   1.922   1_554  S
Ni357       O361   1.973       .  S
Ni357       O359   1.901       .  S
O358       Ni363   1.918       .  S
C360        O361   1.282       .  A
C360       C2173   1.494       .  S
O365       Ni371   1.909       .  S
O365        C386   1.266       .  A
O366       Ni389   1.913       .  S
O366        C375   1.265       .  A
O367       Ni371   1.896       .  S
O367       Ni389   1.904       .  S
O367       Ni383   1.890       .  S
O367        H390   0.967       .  S
C368        O385   1.269       .  A
C368        O377   1.268       .  A
C368       C2070   1.467       .  S
O369       Ni388   1.961       .  S
O369        C375   1.276       .  A
O370       Ni388   1.902       .  S
O370        C372   1.281       .  A
Ni371       O374   1.936       .  S
Ni371       O376   1.888       .  S
C372        O382   1.291       .  A
C372       C2203   1.457       .  S
O373       Ni389   1.881       .  S
O373        C379   1.266       .  A
O374        C379   1.279       .  A
C375       C2090   1.506       .  S
O376        C378   1.259       .  A
O377       Ni388   1.925       .  S
C378        O384   1.262       .  A
C378       C2103   1.468       .  S
C379       C2140   1.453       .  S
H380        O381   0.965       .  S
O381       Ni389   1.934       .  S
O381       Ni383   1.935       .  S
O381       Ni388   1.891       .  S
O382       Ni383   1.962       .  S
Ni383       O387   1.968       .  S
Ni383       O385   1.919       .  S
O384       Ni389   1.913       .  S
C386        O387   1.286       .  A
C386       C2080   1.503       .  S
O391       Ni397   1.912       .  S
O391        C412   1.265       .  A
O392       Ni415   1.891       .  S
O392        C401   1.265       .  A
O393       Ni397   1.887       .  S
O393       Ni415   1.895       .  S
O393       Ni409   1.905       .  S
O393        H416   0.965       .  S
C394        O411   1.282       .  A
C394        O403   1.280       .  A
C394       C2060   1.456       .  S
O395       Ni414   1.966       .  S
O395        C401   1.282       .  A
O396       Ni414   1.922       .  S
O396        C398   1.274       .  A
Ni397       O400   1.908       .  S
Ni397       O402   1.910       .  S
C398        O408   1.275       .  A
C398       C2183   1.481       .  S
O399       Ni415   1.914       .  S
O399        C405   1.273       .  A
O400        C405   1.276       .  A
C401       C2533   1.504       .  S
O402        C404   1.267       .  A
O403       Ni414   1.931       .  S
C404        O410   1.263       .  A
C404       C2113   1.456       .  S
C405       C2153   1.467       .  S
H406        O407   0.967       .  S
O407       Ni415   1.883       .  S
O407       Ni409   1.916       .  S
O407       Ni414   1.891       .  S
O408       Ni409   1.929       .  S
Ni409       O413   1.973       .  S
Ni409       O411   1.906       .  S
O410       Ni415   1.911       .  S
C412        O413   1.286       .  A
C412       C2093   1.499       .  S
O417       Ni423   1.909   1_655  S
O417        C438   1.261   1_655  A
O418       Ni441   1.911       .  S
O418        C427   1.265       .  A
O419       Ni423   1.921       .  S
O419       Ni441   1.906       .  S
O419       Ni435   1.885       .  S
O419        H442   0.966       .  S
C420        O437   1.266       .  A
C420        O429   1.263   1_655  A
C420       C2033   1.452       .  S
O421       Ni440   1.966       .  S
O421        C427   1.278       .  A
O422       Ni440   1.899       .  S
O422        C424   1.273       .  A
Ni423       O426   1.927       .  S
Ni423       O428   1.900   1_455  S
C424        O434   1.288       .  A
C424       C2040   1.475       .  S
O425       Ni441   1.858       .  S
O425        C431   1.264       .  A
O426        C431   1.277       .  A
C427       C2053   1.504       .  S
O428        C430   1.262       .  A
O429       Ni440   1.916       .  S
C430        O436   1.261       .  A
C430       C2023   1.472       .  S
C431       C2013   1.458       .  S
H432        O433   0.966       .  S
O433       Ni441   1.895   1_655  S
O433       Ni435   1.960   1_655  S
O433       Ni440   1.915   1_655  S
O434       Ni435   1.971       .  S
Ni435       O439   1.961       .  S
Ni435       O437   1.907   1_455  S
O436       Ni441   1.893   1_655  S
C438        O439   1.280       .  A
C438       C2670   1.490       .  S
O443       Ni449   1.918       .  S
O443        C464   1.270       .  A
O444       Ni467   1.898       .  S
O444        C453   1.267       .  A
O445       Ni449   1.907       .  S
O445       Ni467   1.924       .  S
O445       Ni461   1.919   1_455  S
O445        H468   0.965       .  S
C446        O463   1.269       .  A
C446        O455   1.277       .  A
C446       C1993   1.447       .  S
O447       Ni466   1.965   1_455  S
O447        C453   1.279       .  A
O448       Ni466   1.901   1_455  S
O448        C450   1.273       .  A
Ni449       O452   1.913       .  S
Ni449       O454   1.879   1_455  S
C450        O460   1.273       .  A
C450       C1980   1.455       .  S
O451       Ni467   1.904       .  S
O451        C457   1.257       .  A
O452        C457   1.260       .  A
C453       C2000   1.495       .  S
O454        C456   1.272       .  A
O455       Ni466   1.932       .  S
C456        O462   1.284       .  A
C456       C1973   1.456       .  S
C457       C1960   1.451       .  S
H458        O459   0.966       .  S
O459       Ni467   1.885   1_655  S
O459       Ni461   1.926       .  S
O459       Ni466   1.901       .  S
O460       Ni461   1.920   1_455  S
Ni461       O465   1.961       .  S
Ni461       O463   1.886       .  S
O462       Ni467   1.960   1_655  S
C464        O465   1.282   1_455  A
C464       C2050   1.499       .  S
O469       Ni475   1.902       .  S
O469        C490   1.262       .  A
O470       Ni493   1.916       .  S
O470        C479   1.267       .  A
O471       Ni475   1.894       .  S
O471       Ni493   1.887       .  S
O471       Ni487   1.874       .  S
O471        H494   0.967       .  S
C472        O489   1.264       .  A
C472        O481   1.267       .  A
C472       C1930   1.462       .  S
O473       Ni492   1.972       .  S
O473        C479   1.280       .  A
O474       Ni492   1.894       .  S
O474        C476   1.281       .  A
Ni475       O478   1.935       .  S
Ni475       O480   1.889       .  S
C476        O486   1.297       .  A
C476       C2543   1.479       .  S
O477       Ni493   1.868       .  S
O477        C483   1.267       .  A
O478        C483   1.282       .  A
C479       C1950   1.517       .  S
O480        C482   1.256       .  A
O481       Ni492   1.926       .  S
C482        O488   1.265       .  A
C482       C1963   1.470       .  S
C483       C2010   1.441       .  S
H484        O485   0.964       .  S
O485       Ni493   1.930       .  S
O485       Ni487   1.946       .  S
O485       Ni492   1.896       .  S
O486       Ni487   1.982       .  S
Ni487       O491   1.970       .  S
Ni487       O489   1.908       .  S
O488       Ni493   1.920       .  S
C490        O491   1.286       .  A
C490       C1943   1.494       .  S
O495       Ni501   1.917       .  S
O495        C516   1.264       .  A
O496       Ni519   1.895       .  S
O496        C505   1.261       .  A
O497       Ni501   1.917       .  S
O497       Ni519   1.930       .  S
O497       Ni513   1.900       .  S
O497        H520   0.966       .  S
C498        O515   1.271       .  A
C498        O507   1.276       .  A
C498       C1910   1.468       .  S
O499       Ni518   1.964       .  S
O499        C505   1.277       .  A
O500       Ni518   1.904       .  S
O500        C502   1.272       .  A
Ni501       O504   1.906       .  S
Ni501       O506   1.885       .  S
C502        O512   1.280       .  A
C502       C2513   1.480       .  S
O503       Ni519   1.891       .  S
O503        C509   1.261       .  A
O504        C509   1.271       .  A
C505       C1920   1.502       .  S
O506        C508   1.263       .  A
O507       Ni518   1.932       .  S
C508        O514   1.262       .  A
C508       C1970   1.454       .  S
C509       C2020   1.447       .  S
H510        O511   0.966       .  S
O511       Ni519   1.898       .  S
O511       Ni513   1.936       .  S
O511       Ni518   1.914       .  S
O512       Ni513   1.939       .  S
Ni513       O517   1.971       .  S
Ni513       O515   1.892       .  S
O514       Ni519   1.912       .  S
C516        O517   1.283       .  A
C516       C1953   1.504       .  S
O521       Ni527   1.895       .  S
O521        C542   1.267       .  A
O522       Ni545   1.888       .  S
O522        C531   1.263       .  A
O523       Ni527   1.913       .  S
O523       Ni545   1.935       .  S
O523       Ni539   1.921   1_545  S
O523        H546   0.966       .  S
C524        O541   1.278       .  A
C524        O533   1.276       .  A
C524       C2030   1.451       .  S
O525       Ni544   1.962       .  S
O525        C531   1.278       .  A
O526       Ni544   1.927       .  S
O526        C528   1.277       .  A
Ni527       O530   1.887       .  S
Ni527       O532   1.886   1_545  S
C528        O538   1.276       .  A
C528       C1893   1.481       .  S
O529       Ni545   1.911       .  S
O529        C535   1.250       .  A
O530        C535   1.255       .  A
C531       C2493   1.487       .  S
O532        C534   1.272       .  A
O533       Ni544   1.920   1_565  S
C534        O540   1.286       .  A
C534       C1880   1.477       .  S
C535       C1870   1.455       .  S
H536        O537   0.966       .  S
O537       Ni545   1.874   1_565  S
O537       Ni539   1.923       .  S
O537       Ni544   1.903   1_565  S
O538       Ni539   1.925   1_545  S
Ni539       O543   1.976   1_565  S
Ni539       O541   1.904       .  S
O540       Ni545   1.964   1_565  S
C542        O543   1.288       .  A
C542       C1900   1.496       .  S
O547       Ni553   1.957   1_545  S
O547        C568   1.278       .  A
O548       Ni571   1.962   1_545  S
O548        C557   1.282       .  A
O549       Ni553   1.908       .  S
O549       Ni571   1.924       .  S
O549       Ni565   1.889   1_565  S
O549        H572   0.966       .  S
C550        O567   1.260       .  A
C550        O559   1.257       .  A
C550       C1830   1.456       .  S
O551       Ni570   1.904       .  S
O551        C557   1.267       .  A
O552       Ni570   1.888   1_565  S
O552        C554   1.271       .  A
Ni553       O556   1.929       .  S
Ni553       O558   1.907   1_565  S
C554        O564   1.286       .  A
C554       C1843   1.463       .  S
O555       Ni571   1.889       .  S
O555        C561   1.269       .  A
O556        C561   1.275       .  A
C557       C1903   1.498       .  S
O558        C560   1.273       .  A
O559       Ni570   1.904       .  S
C560        O566   1.278       .  A
C560       C1850   1.468       .  S
C561       C1990   1.448       .  S
H562        O563   0.966       .  S
O563       Ni571   1.922   1_545  S
O563       Ni565   1.928       .  S
O563       Ni570   1.907       .  S
O564       Ni565   1.969   1_565  S
Ni565       O569   1.910       .  S
Ni565       O567   1.922       .  S
O566       Ni571   1.933   1_545  S
C568        O569   1.271       .  A
C568       C1860   1.506       .  S
O573       Ni579   1.912       .  S
O573        C594   1.269       .  A
O574       Ni597   1.893       .  S
O574        C583   1.264       .  A
O575       Ni579   1.911       .  S
O575       Ni597   1.925       .  S
O575       Ni591   1.919       .  S
O575        H598   0.966       .  S
C576        O593   1.273       .  A
C576        O585   1.277       .  A
C576       C1800   1.458       .  S
O577       Ni596   1.965       .  S
O577        C583   1.277       .  A
O578       Ni596   1.918       .  S
O578        C580   1.275       .  A
Ni579       O582   1.916       .  S
Ni579       O584   1.890       .  S
C580        O590   1.277       .  A
C580       C2363   1.465       .  S
O581       Ni597   1.898       .  S
O581        C587   1.254       .  A
O582        C587   1.262       .  A
C583       C1810   1.498       .  S
O584        C586   1.271       .  A
O585       Ni596   1.929       .  S
C586        O592   1.281       .  A
C586       C1833   1.466       .  S
C587       C1873   1.451       .  S
H588        O589   0.966       .  S
O589       Ni597   1.881       .  S
O589       Ni591   1.926       .  S
O589       Ni596   1.908       .  S
O590       Ni591   1.931       .  S
Ni591       O595   1.964       .  S
Ni591       O593   1.892       .  S
O592       Ni597   1.960       .  S
C594        O595   1.284       .  A
C594       C1823   1.498       .  S
O599       Ni605   1.957       .  S
O599        C620   1.280       .  A
O600       Ni623   1.967       .  S
O600        C609   1.280       .  A
O601       Ni605   1.903       .  S
O601       Ni623   1.923       .  S
O601       Ni617   1.901       .  S
O601        H624   0.966       .  S
C602        O619   1.280       .  A
C602        O611   1.273       .  A
C602       C1883   1.462       .  S
O603       Ni622   1.911       .  S
O603        C609   1.262       .  A
O604       Ni622   1.902       .  S
O604        C606   1.266       .  A
Ni605       O608   1.936       .  S
Ni605       O610   1.910       .  S
C606        O616   1.266       .  A
C606       C1840   1.464       .  S
O607       Ni623   1.882       .  S
O607        C613   1.270       .  A
O608        C613   1.278       .  A
C609       C1820   1.496       .  S
O610        C612   1.272       .  A
O611       Ni622   1.890       .  S
C612        O618   1.277       .  A
C612       C2333   1.471       .  S
C613       C1790   1.446       .  S
H614        O615   0.965       .  S
O615       Ni623   1.891       .  S
O615       Ni617   1.909       .  S
O615       Ni622   1.888       .  S
O616       Ni617   1.923       .  S
Ni617       O621   1.914       .  S
Ni617       O619   1.937       .  S
O618       Ni623   1.931       .  S
C620        O621   1.273       .  A
C620       C1923   1.505       .  S
O625       Ni631   1.975       .  S
O625        C646   1.282   1_545  A
O626       Ni649   1.958       .  S
O626        C635   1.281   1_545  A
O627       Ni631   1.906       .  S
O627       Ni649   1.920       .  S
O627       Ni643   1.878   1_545  S
O627        H650   0.966       .  S
C628        O645   1.253       .  A
C628        O637   1.260       .  A
C628       C1760   1.446       .  S
O629       Ni648   1.915       .  S
O629        C635   1.271       .  A
O630       Ni648   1.888   1_545  S
O630        C632   1.271       .  A
Ni631       O634   1.935       .  S
Ni631       O636   1.922   1_545  S
C632        O642   1.284       .  A
C632       C1753   1.463       .  S
O633       Ni649   1.878       .  S
O633        C639   1.269       .  A
O634        C639   1.279       .  A
C635       C1780   1.502       .  S
O636        C638   1.278       .  A
O637       Ni648   1.911       .  S
C638        O644   1.276       .  A
C638       C2263   1.477       .  S
C639       C1770   1.463       .  S
H640        O641   0.966       .  S
O641       Ni649   1.914   1_565  S
O641       Ni643   1.927       .  S
O641       Ni648   1.906       .  S
O642       Ni643   1.965   1_545  S
Ni643       O647   1.890       .  S
Ni643       O645   1.901       .  S
O644       Ni649   1.929   1_565  S
C646        O647   1.264       .  A
C646       C1863   1.512   1_565  S
O651       Ni657   1.962       .  S
O651        C672   1.276   1_545  A
O652       Ni675   1.962   1_565  S
O652        C661   1.284       .  A
O653       Ni657   1.895       .  S
O653       Ni675   1.948       .  S
O653       Ni669   1.923   1_545  S
O653        H676   0.966       .  S
C654        O671   1.265       .  A
C654        O663   1.285       .  A
C654       C1720   1.462       .  S
O655       Ni674   1.908   1_545  S
O655        C661   1.266   1_545  A
O656       Ni674   1.902   1_545  S
O656        C658   1.261       .  A
Ni657       O660   1.910       .  S
Ni657       O662   1.904   1_545  S
C658        O668   1.265       .  A
C658       C1710   1.487       .  S
O659       Ni675   1.914       .  S
O659        C665   1.264       .  A
O660        C665   1.261       .  A
C661       C1740   1.492       .  S
O662        C664   1.284       .  A
O663       Ni674   1.944       .  S
C664        O670   1.296       .  A
C664       C2303   1.480       .  S
C665       C1730   1.448       .  S
H666        O667   0.967       .  S
O667       Ni675   1.873   1_565  S
O667       Ni669   1.884       .  S
O667       Ni674   1.884       .  S
O668       Ni669   1.922   1_545  S
Ni669       O673   1.911       .  S
Ni669       O671   1.857       .  S
O670       Ni675   1.979   1_565  S
C672        O673   1.265       .  A
C672       C1783   1.505       .  S
O677       Ni683   1.949       .  S
O677        C698   1.277       .  A
O678       Ni701   1.958       .  S
O678        C687   1.275       .  A
O679       Ni683   1.897       .  S
O679       Ni701   1.915       .  S
O679       Ni695   1.898       .  S
O679        H702   0.966       .  S
C680        O697   1.282       .  A
C680        O689   1.271       .  A
C680       C1713   1.457       .  S
O681       Ni700   1.913       .  S
O681        C687   1.261       .  A
O682       Ni700   1.897       .  S
O682        C684   1.266       .  A
Ni683       O686   1.937       .  S
Ni683       O688   1.914       .  S
C684        O694   1.267       .  A
C684       C1750   1.460       .  S
O685       Ni701   1.882       .  S
O685        C691   1.273       .  A
O686        C691   1.283       .  A
C687       C1700   1.493       .  S
O688        C690   1.270       .  A
O689       Ni700   1.883       .  S
C690        O696   1.272       .  A
C690       C1680   1.474       .  S
C691       C1803   1.465       .  S
H692        O693   0.966       .  S
O693       Ni701   1.896       .  S
O693       Ni695   1.920       .  S
O693       Ni700   1.893       .  S
O694       Ni695   1.924       .  S
Ni695       O699   1.930       .  S
Ni695       O697   1.945       .  S
O696       Ni701   1.919       .  S
C698        O699   1.278       .  A
C698       C1690   1.497       .  S
O703       Ni709   1.906       .  S
O703        C724   1.268       .  A
O704       Ni727   1.878       .  S
O704        C713   1.259       .  A
O705       Ni709   1.907       .  S
O705       Ni727   1.914       .  S
O705       Ni721   1.912       .  S
O705        H728   0.964       .  S
C706        O723   1.268       .  A
C706        O715   1.274       .  A
C706       C1793   1.446       .  S
O707       Ni726   1.965       .  S
O707        C713   1.278       .  A
O708       Ni726   1.906       .  S
O708        C710   1.276       .  A
Ni709       O712   1.915       .  S
Ni709       O714   1.887       .  S
C710        O720   1.280       .  A
C710       C1670   1.460       .  S
O711       Ni727   1.888       .  S
O711        C717   1.254       .  A
O712        C717   1.264       .  A
C713       C2223   1.488       .  S
O714        C716   1.269       .  A
O715       Ni726   1.935       .  S
C716        O722   1.275       .  A
C716       C1763   1.454       .  S
C717       C1723   1.439       .  S
H718        O719   0.966       .  S
O719       Ni727   1.889       .  S
O719       Ni721   1.919       .  S
O719       Ni726   1.907       .  S
O720       Ni721   1.936       .  S
Ni721       O725   1.957       .  S
Ni721       O723   1.886       .  S
O722       Ni727   1.943       .  S
C724        O725   1.282       .  A
C724       C1703   1.491       .  S
O729       Ni735   1.896       .  S
O729        C750   1.261       .  A
O730       Ni753   1.925       .  S
O730        C739   1.273       .  A
O731       Ni735   1.914       .  S
O731       Ni753   1.946       .  S
O731       Ni747   1.937       .  S
O731        H754   0.966       .  S
C732        O749   1.275       .  A
C732        O741   1.273       .  A
C732       C1773   1.468       .  S
O733       Ni752   1.943       .  S
O733        C739   1.274       .  A
O734       Ni752   1.906       .  S
O734        C736   1.271       .  A
Ni735       O738   1.884       .  S
Ni735       O740   1.877       .  S
C736        O746   1.273       .  A
C736       C2483   1.463       .  S
O737       Ni753   1.906       .  S
O737        C743   1.260       .  A
O738        C743   1.262       .  A
C739       C2133   1.510       .  S
O740        C742   1.268       .  A
O741       Ni752   1.914   1_554  S
C742        O748   1.281       .  A
C742       C1640   1.464   1_556  S
C743       C1653   1.455       .  S
H744        O745   0.966   1_554  S
O745       Ni753   1.883       .  S
O745       Ni747   1.917       .  S
O745       Ni752   1.911       .  S
O746       Ni747   1.919       .  S
Ni747       O751   1.965       .  S
Ni747       O749   1.899   1_556  S
O748       Ni753   1.954       .  S
C750        O751   1.280       .  A
C750       C1663   1.501       .  S
O755       Ni761   1.901   1_556  S
O755        C776   1.267       .  A
O756       Ni779   1.880       .  S
O756        C765   1.261       .  A
O757       Ni761   1.902   1_556  S
O757       Ni779   1.908       .  S
O757       Ni773   1.927       .  S
O757        H780   0.959   1_556  S
C758        O775   1.274       .  A
C758        O767   1.276       .  A
C758       C2423   1.475       .  S
O759       Ni778   1.963       .  S
O759        C765   1.278       .  A
O760       Ni778   1.905       .  S
O760        C762   1.275       .  A
Ni761       O764   1.912       .  S
Ni761       O766   1.880   1_554  S
C762        O772   1.281       .  A
C762       C1733   1.467   1_556  S
O763       Ni779   1.901   1_554  S
O763        C769   1.257       .  A
O764        C769   1.262       .  A
C765       C1633   1.500       .  S
O766        C768   1.270       .  A
O767       Ni778   1.930       .  S
C768        O774   1.276       .  A
C768       C1620   1.441       .  S
C769       C1610   1.445       .  S
H770        O771   0.966       .  S
O771       Ni779   1.895       .  S
O771       Ni773   1.923       .  S
O771       Ni778   1.907       .  S
O772       Ni773   1.932       .  S
Ni773       O777   1.973       .  S
Ni773       O775   1.904       .  S
O774       Ni779   1.939       .  S
C776        O777   1.288       .  A
C776       C1660   1.505       .  S
O781       Ni787   1.955       .  S
O781        C802   1.277       .  A
O782       Ni805   1.961       .  S
O782        C791   1.284       .  A
O783       Ni787   1.893       .  S
O783       Ni805   1.930       .  S
O783       Ni799   1.937       .  S
O783        H806   0.964       .  S
C784        O801   1.277       .  A
C784        O793   1.281       .  A
C784       C1613   1.476       .  S
O785       Ni804   1.907       .  S
O785        C791   1.264       .  A
O786       Ni804   1.908       .  S
O786        C788   1.263       .  A
Ni787       O790   1.934       .  S
Ni787       O792   1.902       .  S
C788        O798   1.261       .  A
C788       C1643   1.472       .  S
O789       Ni805   1.907       .  S
O789        C795   1.265       .  A
O790        C795   1.271       .  A
C791       C1693   1.491       .  S
O792        C794   1.280       .  A
O793       Ni804   1.921       .  S
C794        O800   1.296       .  A
C794       C1590   1.478       .  S
C795       C2073   1.467       .  S
H796        O797   0.967       .  S
O797       Ni805   1.872       .  S
O797       Ni799   1.885       .  S
O797       Ni804   1.893       .  S
O798       Ni799   1.904       .  S
Ni799       O803   1.924       .  S
Ni799       O801   1.897       .  S
O800       Ni805   1.985       .  S
C802        O803   1.270       .  A
C802       C1600   1.518       .  S
O807       Ni813   1.906       .  S
O807        C828   1.269       .  A
O808       Ni831   1.926       .  S
O808        C817   1.270       .  A
O809       Ni813   1.912       .  S
O809       Ni831   1.911       .  S
O809       Ni825   1.895       .  S
O809        H832   0.966       .  S
C810        O827   1.268       .  A
C810        O819   1.262       .  A
C810       C2063   1.456       .  S
O811       Ni830   1.952       .  S
O811        C817   1.275       .  A
O812       Ni830   1.899       .  S
O812        C814   1.279       .  A
Ni813       O816   1.931       .  S
Ni813       O818   1.907       .  S
C814        O824   1.291       .  A
C814       C1580   1.463       .  S
O815       Ni831   1.867       .  S
O815        C821   1.260       .  A
O816        C821   1.275       .  A
C817       C1603   1.513       .  S
O818        C820   1.266       .  A
O819       Ni830   1.912       .  S
C820        O826   1.272       .  A
C820       C1650   1.483       .  S
C821       C1623   1.465       .  S
H822        O823   0.963       .  S
O823       Ni831   1.910       .  S
O823       Ni825   1.937       .  S
O823       Ni830   1.895       .  S
O824       Ni825   1.971       .  S
Ni825       O829   1.956       .  S
Ni825       O827   1.917       .  S
O826       Ni831   1.931       .  S
C828        O829   1.286       .  A
C828       C2380   1.489       .  S
O833       Ni839   1.959       .  S
O833        C854   1.276       .  A
O834       Ni857   1.976       .  S
O834        C843   1.289       .  A
O835       Ni839   1.904       .  S
O835       Ni857   1.931       .  S
O835       Ni851   1.880       .  S
O835        H858   0.966       .  S
C836        O853   1.251       .  A
C836        O845   1.259       .  A
C836       C1540   1.453       .  S
O837       Ni856   1.899       .  S
O837        C843   1.268       .  A
O838       Ni856   1.894       .  S
O838        C840   1.272       .  A
Ni839       O842   1.914       .  S
Ni839       O844   1.909       .  S
C840        O850   1.281       .  A
C840       C1550   1.478       .  S
O841       Ni857   1.907       .  S
O841        C847   1.276       .  A
O842        C847   1.273       .  A
C843       C1570   1.498       .  S
O844        C846   1.275       .  A
O845       Ni856   1.893   1_554  S
C846        O852   1.277       .  A
C846       C1563   1.460   1_556  S
C847       C2613   1.456       .  S
H848        O849   0.990   1_554  S
O849       Ni857   1.919       .  S
O849       Ni851   1.931       .  S
O849       Ni856   1.914       .  S
O850       Ni851   1.947       .  S
Ni851       O855   1.886       .  S
Ni851       O853   1.904   1_556  S
O852       Ni857   1.932       .  S
C854        O855   1.262       .  A
C854       C1630   1.496       .  S
O859       Ni865   1.960       .  S
O859        C880   1.284       .  A
O860       Ni883   1.977       .  S
O860        C869   1.282       .  A
O861       Ni865   1.892       .  S
O861       Ni883   1.914       .  S
O861       Ni877   1.890       .  S
O861        H884   0.967   1_556  S
C862        O879   1.279       .  A
C862        O871   1.272       .  A
C862       C1520   1.453       .  S
O863       Ni882   1.894       .  S
O863        C869   1.258       .  A
O864       Ni882   1.912       .  S
O864        C866   1.267       .  A
Ni865       O868   1.935   1_556  S
Ni865       O870   1.936       .  S
C866        O876   1.267       .  A
C866       C1510   1.467   1_556  S
O867       Ni883   1.899   1_554  S
O867        C873   1.282       .  A
O868        C873   1.280       .  A
C869       C1573   1.496       .  S
O870        C872   1.276       .  A
O871       Ni882   1.886       .  S
C872        O878   1.272       .  A
C872       C2653   1.482       .  S
C873       C1533   1.460       .  S
H874        O875   0.966       .  S
O875       Ni883   1.903       .  S
O875       Ni877   1.906       .  S
O875       Ni882   1.881       .  S
O876       Ni877   1.926       .  S
Ni877       O881   1.912       .  S
Ni877       O879   1.934       .  S
O878       Ni883   1.922       .  S
C880        O881   1.274       .  A
C880       C2313   1.508       .  S
O885       Ni891   1.980       .  S
O885        C906   1.285       .  A
O886       Ni909   1.973       .  S
O886        C895   1.283       .  A
O887       Ni891   1.900       .  S
O887       Ni909   1.926       .  S
O887       Ni903   1.889       .  S
O887        H910   0.967       .  S
C888        O905   1.275       .  A
C888        O897   1.276       .  A
C888       C1543   1.453       .  S
O889       Ni908   1.910       .  S
O889        C895   1.264       .  A
O890       Ni908   1.903       .  S
O890        C892   1.265       .  A
Ni891       O894   1.936       .  S
Ni891       O896   1.923       .  S
C892        O902   1.269       .  A
C892       C1513   1.466       .  S
O893       Ni909   1.891       .  S
O893        C899   1.276       .  A
O894        C899   1.283       .  A
C895       C1503   1.500       .  S
O896        C898   1.275       .  A
O897       Ni908   1.890       .  S
C898        O904   1.277       .  A
C898       C1593   1.481       .  S
C899       C2213   1.465       .  S
H900        O901   0.966       .  S
O901       Ni909   1.894       .  S
O901       Ni903   1.905       .  S
O901       Ni908   1.885       .  S
O902       Ni903   1.931       .  S
Ni903       O907   1.910       .  S
Ni903       O905   1.924       .  S
O904       Ni909   1.936       .  S
C906        O907   1.271       .  A
C906       C1490   1.513       .  S
O911       Ni917   1.903       .  S
O911        C932   1.256       .  A
O912       Ni935   1.909       .  S
O912        C921   1.270       .  A
O913       Ni917   1.908       .  S
O913       Ni935   1.925       .  S
O913       Ni929   1.894       .  S
O913        H936   0.966       .  S
C914        O931   1.269       .  A
C914        O923   1.281       .  A
C914       C2193   1.461       .  S
O915       Ni934   1.969       .  S
O915        C921   1.282       .  A
O916       Ni934   1.918       .  S
O916        C918   1.273       .  A
Ni917       O920   1.884       .  S
Ni917       O922   1.896       .  S
C918        O928   1.275       .  A
C918       C1583   1.464       .  S
O919       Ni935   1.926       .  S
O919        C925   1.274       .  A
O920        C925   1.271       .  A
C921       C2560   1.518       .  S
O922        C924   1.265       .  A
O923       Ni934   1.946       .  S
C924        O930   1.262       .  A
C924       C1523   1.467       .  S
C925       C1553   1.458       .  S
H926        O927   0.966       .  S
O927       Ni935   1.901       .  S
O927       Ni929   1.925       .  S
O927       Ni934   1.905       .  S
O928       Ni929   1.925       .  S
Ni929       O933   1.974       .  S
Ni929       O931   1.871       .  S
O930       Ni935   1.905       .  S
C932        O933   1.279       .  A
C932       C1500   1.499       .  S
O937       Ni943   1.944       .  S
O937        C958   1.271       .  A
O938       Ni961   1.942       .  S
O938        C947   1.283       .  A
O939       Ni943   1.897       .  S
O939       Ni961   1.925       .  S
O939       Ni955   1.922   1_455  S
O939        H962   0.966       .  S
C940        O957   1.264       .  A
C940        O949   1.284       .  A
C940       C1470   1.457       .  S
O941       Ni960   1.933   1_455  S
O941        C947   1.277       .  A
O942       Ni960   1.913   1_455  S
O942        C944   1.265       .  A
Ni943       O946   1.909       .  S
Ni943       O948   1.887   1_455  S
C944        O954   1.265       .  A
C944       C1463   1.458       .  S
O945       Ni961   1.920       .  S
O945        C951   1.267       .  A
O946        C951   1.261       .  A
C947       C2003   1.492       .  S
O948        C950   1.281       .  A
O949       Ni960   1.952       .  S
C950        O956   1.294       .  A
C950       C2163   1.462       .  S
C951       C1530   1.452       .  S
H952        O953   0.965       .  S
O953       Ni961   1.879   1_655  S
O953       Ni955   1.892       .  S
O953       Ni960   1.888       .  S
O954       Ni955   1.912   1_455  S
Ni955       O959   1.916       .  S
Ni955       O957   1.870       .  S
O956       Ni961   1.970   1_655  S
C958        O959   1.268   1_455  A
C958       C1483   1.493       .  S
O963       Ni969   1.966       .  S
O963        C984   1.281       .  A
O964       Ni987   1.973       .  S
O964        C973   1.287       .  A
O965       Ni969   1.894   1_455  S
O965       Ni987   1.919   1_455  S
O965       Ni981   1.917   1_455  S
O965        H988   0.966       .  S
C966        O983   1.283       .  A
C966        O975   1.277       .  A
C966       C1440   1.467       .  S
O967       Ni986   1.901       .  S
O967        C973   1.266       .  A
O968       Ni986   1.910       .  S
O968        C970   1.264       .  A
Ni969       O972   1.937   1_655  S
Ni969       O974   1.915       .  S
C970        O980   1.261       .  A
C970       C1430   1.465   1_655  S
O971       Ni987   1.899   1_455  S
O971        C977   1.273       .  A
O972        C977   1.277       .  A
C973       C1480   1.510   1_655  S
O974        C976   1.279       .  A
O975       Ni986   1.895       .  S
C976        O982   1.287       .  A
C976       C2123   1.472       .  S
C977       C1560   1.476       .  S
H978        O979   0.958       .  S
O979       Ni987   1.892       .  S
O979       Ni981   1.877       .  S
O979       Ni986   1.868       .  S
O980       Ni981   1.903       .  S
Ni981       O985   1.888       .  S
Ni981       O983   1.938       .  S
O982       Ni987   1.959       .  S
C984        O985   1.267       .  A
C984       C1450   1.497       .  S
O989       Ni995   1.952       .  S
O989       C1010   1.273       .  A
O990      Ni1013   1.957       .  S
O990        C999   1.286       .  A
O991       Ni995   1.897       .  S
O991      Ni1013   1.927       .  S
O991      Ni1007   1.929       .  S
O991       H1014   0.966       .  S
C992       O1009   1.267       .  A
C992       O1001   1.281       .  A
C992       C1433   1.466       .  S
O993      Ni1012   1.932       .  S
O993        C999   1.276       .  A
O994      Ni1012   1.919       .  S
O994        C996   1.267       .  A
Ni995       O998   1.920       .  S
Ni995      O1000   1.902       .  S
C996       O1006   1.264       .  A
C996       C1460   1.468       .  S
O997      Ni1013   1.922       .  S
O997       C1003   1.268       .  A
O998       C1003   1.265       .  A
C999       C1493   1.506       .  S
O1000      C1002   1.284       .  A
O1001     Ni1012   1.947       .  S
C1002      O1008   1.296       .  A
C1002      C1410   1.482       .  S
C1003      C1933   1.461       .  S
H1004      O1005   0.966       .  S
O1005     Ni1013   1.893       .  S
O1005     Ni1007   1.908       .  S
O1005     Ni1012   1.904       .  S
O1006     Ni1007   1.909       .  S
Ni1007     O1011   1.929       .  S
Ni1007     O1009   1.883       .  S
O1008     Ni1013   1.980       .  S
C1010      O1011   1.268       .  A
C1010      C1423   1.504       .  S
O1015     Ni1021   1.963       .  S
O1015      C1036   1.279       .  A
O1016     Ni1039   1.972       .  S
O1016      C1025   1.284       .  A
O1017     Ni1021   1.900       .  S
O1017     Ni1039   1.923       .  S
O1017     Ni1033   1.908       .  S
O1017      H1040   0.965       .  S
C1018      O1035   1.279       .  A
C1018      O1027   1.275       .  A
C1018      C1443   1.468       .  S
O1019     Ni1038   1.922       .  S
O1019      C1025   1.268       .  A
O1020     Ni1038   1.909       .  S
O1020      C1022   1.267       .  A
Ni1021     O1024   1.939       .  S
Ni1021     O1026   1.912       .  S
C1022      O1032   1.262       .  A
C1022      C1473   1.460       .  S
O1023     Ni1039   1.892       .  S
O1023      C1029   1.273       .  A
O1024      C1029   1.280       .  A
C1025      C1420   1.507       .  S
O1026      C1028   1.274       .  A
O1027     Ni1038   1.897       .  S
C1028      O1034   1.279       .  A
C1028      C1400   1.462       .  S
C1029      C1913   1.469       .  S
H1030      O1031   0.965       .  S
O1031     Ni1039   1.893       .  S
O1031     Ni1033   1.900       .  S
O1031     Ni1038   1.888       .  S
O1032     Ni1033   1.896       .  S
Ni1033     O1037   1.905       .  S
Ni1033     O1035   1.932       .  S
O1034     Ni1039   1.923       .  S
C1036      O1037   1.272       .  A
C1036      C2083   1.497       .  S
O1041     Ni1047   1.904       .  S
O1041      C1062   1.261       .  A
O1042     Ni1065   1.904       .  S
O1042      C1051   1.267       .  A
O1043     Ni1047   1.890       .  S
O1043     Ni1065   1.903       .  S
O1043     Ni1059   1.882       .  S
O1043      H1066   0.966       .  S
C1044      O1061   1.269       .  A
C1044      O1053   1.276       .  A
C1044      C1380   1.462       .  S
O1045     Ni1064   1.958   1_565  S
O1045      C1051   1.279       .  A
O1046     Ni1064   1.909   1_565  S
O1046      C1048   1.275       .  A
Ni1047     O1050   1.885       .  S
Ni1047     O1052   1.897       .  S
C1048      O1058   1.282       .  A
C1048      C2043   1.474       .  S
O1049     Ni1065   1.929       .  S
O1049      C1055   1.278       .  A
O1050      C1055   1.274       .  A
C1051      C2443   1.506       .  S
O1052      C1054   1.264   1_565  A
O1053     Ni1064   1.934       .  S
C1054      O1060   1.261       .  A
C1054      C1360   1.456       .  S
C1055      C1370   1.456       .  S
H1056      O1057   0.966       .  S
O1057     Ni1065   1.911   1_545  S
O1057     Ni1059   1.929   1_545  S
O1057     Ni1064   1.905       .  S
O1058     Ni1059   1.945       .  S
Ni1059     O1063   1.973       .  S
Ni1059     O1061   1.880   1_565  S
O1060     Ni1065   1.910   1_545  S
C1062      O1063   1.282       .  A
C1062      C1390   1.497       .  S
O1067     Ni1073   1.913       .  S
O1067      C1088   1.271   1_545  A
O1068     Ni1091   1.897       .  S
O1068      C1077   1.266       .  A
O1069     Ni1073   1.908       .  S
O1069     Ni1091   1.926   1_545  S
O1069     Ni1085   1.925   1_545  S
O1069      H1092   0.966       .  S
C1070      O1087   1.277       .  A
C1070      O1079   1.279       .  A
C1070      C1983   1.469       .  S
O1071     Ni1090   1.969       .  S
O1071      C1077   1.279       .  A
O1072     Ni1090   1.910   1_545  S
O1072      C1074   1.273       .  A
Ni1073     O1076   1.912       .  S
Ni1073     O1078   1.889   1_545  S
C1074      O1084   1.273       .  A
C1074      C1350   1.458       .  S
O1075     Ni1091   1.904   1_545  S
O1075      C1081   1.254       .  A
O1076      C1081   1.259       .  A
C1077      C1743   1.499       .  S
O1078      C1080   1.273       .  A
O1079     Ni1090   1.922       .  S
C1080      O1086   1.287       .  A
C1080      C1340   1.475       .  S
C1081      C1333   1.452       .  S
H1082      O1083   0.966       .  S
O1083     Ni1091   1.872       .  S
O1083     Ni1085   1.924       .  S
O1083     Ni1090   1.902       .  S
O1084     Ni1085   1.919   1_545  S
Ni1085     O1089   1.970       .  S
Ni1085     O1087   1.900       .  S
O1086     Ni1091   1.965       .  S
C1088      O1089   1.286       .  A
C1088      C1393   1.505       .  S
O1093     Ni1099   1.906       .  S
O1093      C1114   1.269       .  A
O1094     Ni1117   1.894       .  S
O1094      C1103   1.265       .  A
O1095     Ni1099   1.906       .  S
O1095     Ni1117   1.933       .  S
O1095     Ni1111   1.923       .  S
O1095      H1118   0.965       .  S
C1096      O1113   1.276       .  A
C1096      O1105   1.282       .  A
C1096      C2373   1.476       .  S
O1097     Ni1116   1.982       .  S
O1097      C1103   1.284       .  A
O1098     Ni1116   1.926       .  S
O1098      C1100   1.277       .  A
Ni1099     O1102   1.894       .  S
Ni1099     O1104   1.881       .  S
C1100      O1110   1.278       .  A
C1100      C1683   1.477       .  S
O1101     Ni1117   1.913       .  S
O1101      C1107   1.252       .  A
O1102      C1107   1.255       .  A
C1103      C1310   1.516       .  S
O1104      C1106   1.271       .  A
O1105     Ni1116   1.947       .  S
C1106      O1112   1.287       .  A
C1106      C1363   1.464       .  S
C1107      C1330   1.452       .  S
H1108      O1109   0.966       .  S
O1109     Ni1117   1.881       .  S
O1109     Ni1111   1.923       .  S
O1109     Ni1116   1.902       .  S
O1110     Ni1111   1.928       .  S
Ni1111     O1115   1.974       .  S
Ni1111     O1113   1.900       .  S
O1112     Ni1117   1.966       .  S
C1114      O1115   1.288       .  A
C1114      C1320   1.504       .  S
O1119     Ni1125   1.943       .  S
O1119      C1140   1.273       .  A
O1120     Ni1143   1.976       .  S
O1120      C1129   1.280       .  A
O1121     Ni1125   1.914       .  S
O1121     Ni1143   1.932       .  S
O1121     Ni1137   1.911       .  S
O1121      H1144   0.966       .  S
C1122      O1139   1.275       .  A
C1122      O1131   1.270       .  A
C1122      C1343   1.460       .  S
O1123     Ni1142   1.908       .  S
O1123      C1129   1.258       .  A
O1124     Ni1142   1.883       .  S
O1124      C1126   1.263       .  A
Ni1125     O1128   1.923       .  S
Ni1125     O1130   1.896       .  S
C1126      O1136   1.264       .  A
C1126      C1373   1.462       .  S
O1127     Ni1143   1.897       .  S
O1127      C1133   1.271       .  A
O1128      C1133   1.270       .  A
C1129      C1323   1.501       .  S
O1130      C1132   1.271       .  A
O1131     Ni1142   1.892       .  S
C1132      O1138   1.279       .  A
C1132      C1673   1.457       .  S
C1133      C2343   1.452       .  S
H1134      O1135   0.966       .  S
O1135     Ni1143   1.897       .  S
O1135     Ni1137   1.931       .  S
O1135     Ni1142   1.912       .  S
O1136     Ni1137   1.915       .  S
Ni1137     O1141   1.920       .  S
Ni1137     O1139   1.929       .  S
O1138     Ni1143   1.938       .  S
C1140      O1141   1.273       .  A
C1140      C1940   1.499       .  S
O1145     Ni1151   1.964   1_655  S
O1145      C1166   1.284       .  A
O1146     Ni1169   1.960       .  S
O1146      C1155   1.281   1_455  A
O1147     Ni1151   1.893       .  S
O1147     Ni1169   1.916       .  S
O1147     Ni1163   1.894   1_455  S
O1147      H1170   0.966       .  S
C1148      O1165   1.277       .  A
C1148      O1157   1.273       .  A
C1148      C1290   1.457       .  S
O1149     Ni1168   1.919       .  S
O1149      C1155   1.268       .  A
O1150     Ni1168   1.908       .  S
O1150      C1152   1.270   1_655  A
Ni1151     O1154   1.944       .  S
Ni1151     O1156   1.927   1_455  S
C1152      O1162   1.276       .  A
C1152      C1280   1.489       .  S
O1153     Ni1169   1.879       .  S
O1153      C1159   1.273       .  A
O1154      C1159   1.283       .  A
C1155      C1300   1.495   1_655  S
O1156      C1158   1.275       .  A
O1157     Ni1168   1.893       .  S
C1158      O1164   1.275       .  A
C1158      C1890   1.482       .  S
C1159      C1383   1.462       .  S
H1160      O1161   0.965       .  S
O1161     Ni1169   1.885   1_655  S
O1161     Ni1163   1.899       .  S
O1161     Ni1168   1.867       .  S
O1162     Ni1163   1.944   1_455  S
Ni1163     O1167   1.922       .  S
Ni1163     O1165   1.927       .  S
O1164     Ni1169   1.931   1_655  S
C1166      O1167   1.278       .  A
C1166      C2620   1.514       .  S
O1171     Ni1177   1.901   1_455  S
O1171      C1192   1.258       .  A
O1172     Ni1195   1.892       .  S
O1172      C1181   1.267       .  A
O1173     Ni1177   1.892       .  S
O1173     Ni1195   1.905       .  S
O1173     Ni1189   1.897   1_655  S
O1173      H1196   0.966       .  S
C1174      O1191   1.276       .  A
C1174      O1183   1.283       .  A
C1174      C1353   1.467       .  S
O1175     Ni1194   1.972   1_655  S
O1175      C1181   1.283       .  A
O1176     Ni1194   1.909   1_655  S
O1176      C1178   1.272       .  A
Ni1177     O1180   1.887       .  S
Ni1177     O1182   1.899   1_655  S
C1178      O1188   1.274       .  A
C1178      C1853   1.466       .  S
O1179     Ni1195   1.921       .  S
O1179      C1185   1.273       .  A
O1180      C1185   1.272       .  A
C1181      C1453   1.507       .  S
O1182      C1184   1.265       .  A
O1183     Ni1194   1.941       .  S
C1184      O1190   1.260       .  A
C1184      C1260   1.463       .  S
C1185      C1273   1.444       .  S
H1186      O1187   0.966       .  S
O1187     Ni1195   1.890   1_455  S
O1187     Ni1189   1.921       .  S
O1187     Ni1194   1.894       .  S
O1188     Ni1189   1.923   1_655  S
Ni1189     O1193   1.974       .  S
Ni1189     O1191   1.889       .  S
O1190     Ni1195   1.900   1_455  S
C1192      O1193   1.281       .  A
C1192      C1303   1.496       .  S
O1197     Ni1203   1.974       .  S
O1197      C1218   1.289       .  A
O1198     Ni1221   1.955       .  S
O1198      C1207   1.281       .  A
O1199     Ni1203   1.878       .  S
O1199     Ni1221   1.901       .  S
O1199     Ni1215   1.874       .  S
O1199      H1222   0.967       .  S
C1200      O1217   1.271       .  A
C1200      O1209   1.267       .  A
C1200      C1263   1.454       .  S
O1201     Ni1220   1.914       .  S
O1201      C1207   1.267       .  A
O1202     Ni1220   1.923       .  S
O1202      C1204   1.274       .  A
Ni1203     O1206   1.944       .  S
Ni1203     O1208   1.939       .  S
C1204      O1214   1.279       .  A
C1204      C1283   1.495       .  S
O1205     Ni1221   1.881       .  S
O1205      C1211   1.277       .  A
O1206      C1211   1.286       .  A
C1207      C1253   1.490       .  S
O1208      C1210   1.277       .  A
O1209     Ni1220   1.902       .  S
C1210      O1216   1.273       .  A
C1210      C1413   1.481       .  S
C1211      C2553   1.472       .  S
H1212      O1213   0.965       .  S
O1213     Ni1221   1.894       .  S
O1213     Ni1215   1.910       .  S
O1213     Ni1220   1.867       .  S
O1214     Ni1215   1.945       .  S
Ni1215     O1219   1.908       .  S
Ni1215     O1217   1.920       .  S
O1216     Ni1221   1.922       .  S
C1218      O1219   1.278       .  A
C1218      C1313   1.515       .  S
O1223     Ni1229   1.958       .  S
O1223      C1244   1.277       .  A
O1224     Ni1247   1.967       .  S
O1224      C1233   1.281       .  A
O1225     Ni1229   1.892       .  S
O1225     Ni1247   1.957       .  S
O1225     Ni1241   1.900       .  S
O1225      H1248   0.967       .  S
C1226      O1243   1.274       .  A
C1226      O1235   1.278       .  A
C1226      C1270   1.476       .  S
O1227     Ni1246   1.897       .  S
O1227      C1233   1.261       .  A
O1228     Ni1246   1.908       .  S
O1228      C1230   1.265       .  A
Ni1229     O1232   1.922       .  S
Ni1229     O1234   1.899       .  S
C1230      O1240   1.256       .  A
C1230      C1293   1.474       .  S
O1231     Ni1247   1.922       .  S
O1231      C1237   1.275       .  A
O1232      C1237   1.263       .  A
C1233      C1813   1.493       .  S
O1234      C1236   1.267       .  A
O1235     Ni1246   1.912       .  S
C1236      O1242   1.283       .  A
C1236      C1403   1.460       .  S
C1237      C2523   1.470       .  S
H1238      O1239   0.966       .  S
O1239     Ni1247   1.895       .  S
O1239     Ni1241   1.898       .  S
O1239     Ni1246   1.891       .  S
O1240     Ni1241   1.884       .  S
Ni1241     O1245   1.913       .  S
Ni1241     O1243   1.900       .  S
O1242     Ni1247   1.969       .  S
C1244      O1245   1.268       .  A
C1244      C1250   1.498       .  S
C1249      C1250   1.410       .  A
C1249      C1254   1.413   1_655  A
C1249      F1256   1.357       .  S
C1250      C1251   1.408       .  A
C1251      C1252   1.406   1_655  A
C1251      F1258   1.357       .  S
C1252      C1253   1.407       .  A
C1252      F1257   1.358       .  S
C1253      C1254   1.410       .  A
C1254      F1255   1.357       .  S
C1259      C1260   1.407       .  A
C1259      C1264   1.388       .  A
C1259      F1266   1.356       .  S
C1260      C1261   1.405       .  A
C1261      C1262   1.396       .  A
C1261      F1268   1.358       .  S
C1262      C1263   1.405       .  A
C1262      F1267   1.357       .  S
C1263      C1264   1.401       .  A
C1264      F1265   1.359       .  S
C1269      C1270   1.414       .  A
C1269      C1274   1.390       .  A
C1269      F1276   1.359       .  S
C1270      C1271   1.411       .  A
C1271      C1272   1.392       .  A
C1271      F1278   1.358       .  S
C1272      C1273   1.399       .  A
C1272      F1277   1.358       .  S
C1273      C1274   1.398       .  A
C1274      F1275   1.359       .  S
C1279      C1280   1.412       .  A
C1279      C1284   1.413       .  A
C1279      F1286   1.357       .  S
C1280      C1281   1.405       .  A
C1281      C1282   1.391       .  A
C1281      F1288   1.359   1_455  S
C1282      C1283   1.411       .  A
C1282      F1287   1.356       .  S
C1283      C1284   1.411       .  A
C1284      F1285   1.357       .  S
C1289      C1290   1.399       .  A
C1289      C1294   1.392       .  A
C1289      F1296   1.359       .  S
C1290      C1291   1.404       .  A
C1291      C1292   1.393       .  A
C1291      F1298   1.358       .  S
C1292      C1293   1.407       .  A
C1292      F1297   1.358       .  S
C1293      C1294   1.414       .  A
C1294      F1295   1.358       .  S
C1299      C1300   1.411   1_655  A
C1299      C1304   1.414       .  A
C1299      F1306   1.357       .  S
C1300      C1301   1.406       .  A
C1301      C1302   1.408       .  A
C1301      F1308   1.358       .  S
C1302      C1303   1.412       .  A
C1302      F1307   1.358       .  S
C1303      C1304   1.409   1_455  A
C1304      F1305   1.357       .  S
C1309      C1310   1.413       .  A
C1309      C1314   1.416       .  A
C1309      F1316   1.357       .  S
C1310      C1311   1.417       .  A
C1311      C1312   1.404       .  A
C1311      F1318   1.358       .  S
C1312      C1313   1.411       .  A
C1312      F1317   1.358       .  S
C1313      C1314   1.417       .  A
C1314      F1315   1.357       .  S
C1319      C1320   1.413       .  A
C1319      C1324   1.413   1_545  A
C1319      F1326   1.358       .  S
C1320      C1321   1.409       .  A
C1321      C1322   1.414   1_545  A
C1321      F1328   1.358       .  S
C1322      C1323   1.413       .  A
C1322      F1327   1.358       .  S
C1323      C1324   1.408       .  A
C1324      F1325   1.357       .  S
C1329      C1330   1.404       .  A
C1329      C1334   1.389       .  A
C1329      F1336   1.358       .  S
C1330      C1331   1.397       .  A
C1331      C1332   1.396       .  A
C1331      F1338   1.358       .  S
C1332      C1333   1.408       .  A
C1332      F1337   1.358       .  S
C1333      C1334   1.397       .  A
C1334      F1335   1.358       .  S
C1339      C1340   1.411       .  A
C1339      C1344   1.396       .  A
C1339      F1346   1.359       .  S
C1340      C1341   1.403       .  A
C1341      C1342   1.399       .  A
C1341      F1348   1.358       .  S
C1342      C1343   1.408       .  A
C1342      F1347   1.358       .  S
C1343      C1344   1.399       .  A
C1344      F1345   1.358       .  S
C1349      C1350   1.401       .  A
C1349      C1354   1.392       .  A
C1349      F1356   1.358       .  S
C1350      C1351   1.403       .  A
C1351      C1352   1.396       .  A
C1351      F1358   1.358       .  S
C1352      C1353   1.406       .  A
C1352      F1357   1.358       .  S
C1353      C1354   1.408       .  A
C1354      F1355   1.359       .  S
C1359      C1360   1.406       .  A
C1359      C1364   1.395       .  A
C1359      F1366   1.358       .  S
C1360      C1361   1.396       .  A
C1361      C1362   1.394       .  A
C1361      F1368   1.358       .  S
C1362      C1363   1.410       .  A
C1362      F1367   1.359       .  S
C1363      C1364   1.400       .  A
C1364      F1365   1.358       .  S
C1369      C1370   1.411       .  A
C1369      C1374   1.399       .  A
C1369      F1376   1.358       .  S
C1370      C1371   1.396       .  A
C1371      C1372   1.392       .  A
C1371      F1378   1.358       .  S
C1372      C1373   1.409       .  A
C1372      F1377   1.358       .  S
C1373      C1374   1.398       .  A
C1374      F1375   1.357       .  S
C1379      C1380   1.404       .  A
C1379      C1384   1.390       .  A
C1379      F1386   1.358       .  S
C1380      C1381   1.406       .  A
C1381      C1382   1.391       .  A
C1381      F1388   1.358       .  S
C1382      C1383   1.404       .  A
C1382      F1387   1.358       .  S
C1383      C1384   1.406       .  A
C1384      F1385   1.359       .  S
C1389      C1390   1.408   1_545  A
C1389      C1394   1.409       .  A
C1389      F1396   1.358       .  S
C1390      C1391   1.412       .  A
C1391      C1392   1.416       .  A
C1391      F1398   1.357       .  S
C1392      C1393   1.411       .  A
C1392      F1397   1.357       .  S
C1393      C1394   1.412   1_565  A
C1394      F1395   1.358       .  S
C1399      C1400   1.410       .  A
C1399      C1404   1.405       .  A
C1399      F1406   1.357       .  S
C1400      C1401   1.400       .  A
C1401      C1402   1.377       .  A
C1401      F1408   1.360       .  S
C1402      C1403   1.406       .  A
C1402      F1407   1.359       .  S
C1403      C1404   1.403       .  A
C1404      F1405   1.357       .  S
C1409      C1410   1.410       .  A
C1409      C1414   1.413       .  A
C1409      F1416   1.357       .  S
C1410      C1411   1.405       .  A
C1411      C1412   1.390       .  A
C1411      F1418   1.359       .  S
C1412      C1413   1.406       .  A
C1412      F1417   1.359       .  S
C1413      C1414   1.409       .  A
C1414      F1415   1.357       .  S
C1419      C1420   1.413       .  A
C1419      C1424   1.420   1_655  A
C1419      F1426   1.357       .  S
C1420      C1421   1.412       .  A
C1421      C1422   1.408   1_655  A
C1421      F1428   1.358       .  S
C1422      C1423   1.407       .  A
C1422      F1427   1.357       .  S
C1423      C1424   1.412       .  A
C1424      F1425   1.357       .  S
C1429      C1430   1.401       .  A
C1429      C1434   1.395       .  A
C1429      F1436   1.358   1_455  S
C1430      C1431   1.408       .  A
C1431      C1432   1.393       .  A
C1431      F1438   1.358       .  S
C1432      C1433   1.401       .  A
C1432      F1437   1.358       .  S
C1433      C1434   1.409       .  A
C1434      F1435   1.358       .  S
C1439      C1440   1.409       .  A
C1439      C1444   1.395       .  A
C1439      F1446   1.359       .  S
C1440      C1441   1.401       .  A
C1441      C1442   1.396       .  A
C1441      F1448   1.358       .  S
C1442      C1443   1.409       .  A
C1442      F1447   1.358       .  S
C1443      C1444   1.402       .  A
C1444      F1445   1.358       .  S
C1449      C1450   1.408       .  A
C1449      C1454   1.396       .  A
C1449      F1456   1.359   1_655  S
C1450      C1451   1.409       .  A
C1451      C1452   1.415       .  A
C1451      F1458   1.357       .  S
C1452      C1453   1.416       .  A
C1452      F1457   1.357       .  S
C1453      C1454   1.414       .  A
C1454      F1455   1.358   1_655  S
C1459      C1460   1.407       .  A
C1459      C1464   1.402       .  A
C1459      F1466   1.358       .  S
C1460      C1461   1.407       .  A
C1461      C1462   1.386       .  A
C1461      F1468   1.359       .  S
C1462      C1463   1.399       .  A
C1462      F1467   1.359   1_455  S
C1463      C1464   1.404       .  A
C1464      F1465   1.358       .  S
C1469      C1470   1.397       .  A
C1469      C1474   1.391       .  A
C1469      F1476   1.358       .  S
C1470      C1471   1.409       .  A
C1471      C1472   1.391       .  A
C1471      F1478   1.358       .  S
C1472      C1473   1.399       .  A
C1472      F1477   1.358       .  S
C1473      C1474   1.410       .  A
C1474      F1475   1.357       .  S
C1479      C1480   1.418       .  A
C1479      C1484   1.392       .  A
C1479      F1486   1.359       .  S
C1480      C1481   1.415       .  A
C1481      C1482   1.423       .  A
C1481      F1488   1.356   1_455  S
C1482      C1483   1.413       .  A
C1482      F1487   1.357       .  S
C1483      C1484   1.398       .  A
C1484      F1485   1.356       .  S
C1489      C1490   1.410       .  A
C1489      C1494   1.404       .  A
C1489      F1496   1.358       .  S
C1490      C1491   1.416       .  A
C1491      C1492   1.422       .  A
C1491      F1498   1.357       .  S
C1492      C1493   1.412       .  A
C1492      F1497   1.357       .  S
C1493      C1494   1.410       .  A
C1494      F1495   1.358       .  S
C1499      C1500   1.412       .  A
C1499      C1504   1.420       .  A
C1499      F1506   1.357       .  S
C1500      C1501   1.409       .  A
C1501      C1502   1.406       .  A
C1501      F1508   1.359       .  S
C1502      C1503   1.408   1_556  A
C1502      F1507   1.358   1_556  S
C1503      C1504   1.412   1_554  A
C1504      F1505   1.357   1_556  S
C1509      C1510   1.407       .  A
C1509      C1514   1.398       .  A
C1509      F1516   1.357       .  S
C1510      C1511   1.400       .  A
C1511      C1512   1.400       .  A
C1511      F1518   1.358       .  S
C1512      C1513   1.408       .  A
C1512      F1517   1.358       .  S
C1513      C1514   1.400       .  A
C1514      F1515   1.358       .  S
C1519      C1520   1.407       .  A
C1519      C1524   1.398       .  A
C1519      F1526   1.358       .  S
C1520      C1521   1.399       .  A
C1521      C1522   1.391       .  A
C1521      F1528   1.359       .  S
C1522      C1523   1.409       .  A
C1522      F1527   1.357       .  S
C1523      C1524   1.404       .  A
C1524      F1525   1.357       .  S
C1529      C1530   1.400       .  A
C1529      C1534   1.393       .  A
C1529      F1536   1.358       .  S
C1530      C1531   1.407       .  A
C1531      C1532   1.394       .  A
C1531      F1538   1.359       .  S
C1532      C1533   1.403       .  A
C1532      F1537   1.358       .  S
C1533      C1534   1.404       .  A
C1534      F1535   1.358       .  S
C1539      C1540   1.405       .  A
C1539      C1544   1.392       .  A
C1539      F1546   1.358       .  S
C1540      C1541   1.398       .  A
C1541      C1542   1.396       .  A
C1541      F1548   1.358       .  S
C1542      C1543   1.408       .  A
C1542      F1547   1.358       .  S
C1543      C1544   1.398       .  A
C1544      F1545   1.358       .  S
C1549      C1550   1.407       .  A
C1549      C1554   1.399       .  A
C1549      F1556   1.358       .  S
C1550      C1551   1.412       .  A
C1551      C1552   1.396       .  A
C1551      F1558   1.358       .  S
C1552      C1553   1.399       .  A
C1552      F1557   1.358       .  S
C1553      C1554   1.407       .  A
C1554      F1555   1.358       .  S
C1559      C1560   1.411       .  A
C1559      C1564   1.394       .  A
C1559      F1566   1.358       .  S
C1560      C1561   1.408       .  A
C1561      C1562   1.395       .  A
C1561      F1568   1.358       .  S
C1562      C1563   1.403       .  A
C1562      F1567   1.356       .  S
C1563      C1564   1.399       .  A
C1564      F1565   1.358   1_554  S
C1569      C1570   1.413   1_554  A
C1569      C1574   1.411       .  A
C1569      F1576   1.358       .  S
C1570      C1571   1.408       .  A
C1571      C1572   1.413       .  A
C1571      F1578   1.358       .  S
C1572      C1573   1.413       .  A
C1572      F1577   1.358       .  S
C1573      C1574   1.406   1_556  A
C1574      F1575   1.357       .  S
C1579      C1580   1.401       .  A
C1579      C1584   1.386       .  A
C1579      F1586   1.359       .  S
C1580      C1581   1.406       .  A
C1581      C1582   1.408       .  A
C1581      F1588   1.357       .  S
C1582      C1583   1.406       .  A
C1582      F1587   1.357       .  S
C1583      C1584   1.401       .  A
C1584      F1585   1.358       .  S
C1589      C1590   1.407       .  A
C1589      C1594   1.401       .  A
C1589      F1596   1.358       .  S
C1590      C1591   1.406       .  A
C1591      C1592   1.405       .  A
C1591      F1598   1.358       .  S
C1592      C1593   1.408       .  A
C1592      F1597   1.358       .  S
C1593      C1594   1.405       .  A
C1594      F1595   1.358       .  S
C1599      C1600   1.415   1_556  A
C1599      C1604   1.415       .  A
C1599      F1606   1.357   1_556  S
C1600      C1601   1.415   1_554  A
C1601      C1602   1.410       .  A
C1601      F1608   1.358   1_556  S
C1602      C1603   1.412       .  A
C1602      F1607   1.358       .  S
C1603      C1604   1.413       .  A
C1604      F1605   1.357       .  S
C1609      C1610   1.398       .  A
C1609      C1614   1.392       .  A
C1609      F1616   1.359       .  S
C1610      C1611   1.399       .  A
C1611      C1612   1.392       .  A
C1611      F1618   1.358       .  S
C1612      C1613   1.411       .  A
C1612      F1617   1.358       .  S
C1613      C1614   1.412       .  A
C1614      F1615   1.358       .  S
C1619      C1620   1.395       .  A
C1619      C1624   1.388       .  A
C1619      F1626   1.359       .  S
C1620      C1621   1.400       .  A
C1621      C1622   1.386       .  A
C1621      F1628   1.359       .  S
C1622      C1623   1.406       .  A
C1622      F1627   1.358       .  S
C1623      C1624   1.414       .  A
C1624      F1625   1.358       .  S
C1629      C1630   1.412       .  A
C1629      C1634   1.412       .  A
C1629      F1636   1.357       .  S
C1630      C1631   1.408       .  A
C1631      C1632   1.394       .  A
C1631      F1638   1.359   1_556  S
C1632      C1633   1.413       .  A
C1632      F1637   1.359   1_556  S
C1633      C1634   1.412       .  A
C1634      F1635   1.357       .  S
C1639      C1640   1.399       .  A
C1639      C1644   1.398       .  A
C1639      F1646   1.358       .  S
C1640      C1641   1.408       .  A
C1641      C1642   1.394       .  A
C1641      F1648   1.359       .  S
C1642      C1643   1.400       .  A
C1642      F1647   1.358       .  S
C1643      C1644   1.413       .  A
C1644      F1645   1.357       .  S
C1649      C1650   1.413       .  A
C1649      C1654   1.396       .  A
C1649      F1656   1.356       .  S
C1650      C1651   1.411       .  A
C1651      C1652   1.400       .  A
C1651      F1658   1.358       .  S
C1652      C1653   1.404       .  A
C1652      F1657   1.358       .  S
C1653      C1654   1.399       .  A
C1654      F1655   1.358       .  S
C1659      C1660   1.417   1_554  A
C1659      C1664   1.414   1_554  A
C1659      F1666   1.358       .  S
C1660      C1661   1.407       .  A
C1661      C1662   1.411       .  A
C1661      F1668   1.357       .  S
C1662      C1663   1.414       .  A
C1662      F1667   1.358       .  S
C1663      C1664   1.408       .  A
C1664      F1665   1.358   1_556  S
C1669      C1670   1.406       .  A
C1669      C1674   1.396       .  A
C1669      F1676   1.356       .  S
C1670      C1671   1.402       .  A
C1671      C1672   1.392       .  A
C1671      F1678   1.358       .  S
C1672      C1673   1.403       .  A
C1672      F1677   1.359       .  S
C1673      C1674   1.401       .  A
C1674      F1675   1.358       .  S
C1679      C1680   1.407       .  A
C1679      C1684   1.406       .  A
C1679      F1686   1.357       .  S
C1680      C1681   1.406       .  A
C1681      C1682   1.389       .  A
C1681      F1688   1.359       .  S
C1682      C1683   1.406       .  A
C1682      F1687   1.359       .  S
C1683      C1684   1.409       .  A
C1684      F1685   1.357       .  S
C1689      C1690   1.406       .  A
C1689      C1694   1.405       .  A
C1689      F1696   1.358       .  S
C1690      C1691   1.411       .  A
C1691      C1692   1.414       .  A
C1691      F1698   1.357       .  S
C1692      C1693   1.410       .  A
C1692      F1697   1.357       .  S
C1693      C1694   1.410       .  A
C1694      F1695   1.358       .  S
C1699      C1700   1.409       .  A
C1699      C1704   1.408   1_545  A
C1699      F1706   1.358       .  S
C1700      C1701   1.408       .  A
C1701      C1702   1.411   1_545  A
C1701      F1708   1.357       .  S
C1702      C1703   1.410       .  A
C1702      F1707   1.357       .  S
C1703      C1704   1.408       .  A
C1704      F1705   1.358       .  S
C1709      C1710   1.413       .  A
C1709      C1714   1.398       .  A
C1709      F1716   1.358       .  S
C1710      C1711   1.411       .  A
C1711      C1712   1.398       .  A
C1711      F1718   1.358       .  S
C1712      C1713   1.404       .  A
C1712      F1717   1.359       .  S
C1713      C1714   1.401       .  A
C1714      F1715   1.358       .  S
C1719      C1720   1.412       .  A
C1719      C1724   1.383       .  A
C1719      F1726   1.358       .  S
C1720      C1721   1.404       .  A
C1721      C1722   1.391       .  A
C1721      F1728   1.358       .  S
C1722      C1723   1.401       .  A
C1722      F1727   1.358       .  S
C1723      C1724   1.395       .  A
C1724      F1725   1.359       .  S
C1729      C1730   1.398       .  A
C1729      C1734   1.384       .  A
C1729      F1736   1.360       .  S
C1730      C1731   1.399       .  A
C1731      C1732   1.399       .  A
C1731      F1738   1.357       .  S
C1732      C1733   1.410       .  A
C1732      F1737   1.358       .  S
C1733      C1734   1.406       .  A
C1734      F1735   1.357       .  S
C1739      C1740   1.409   1_545  A
C1739      C1744   1.419       .  A
C1739      F1746   1.357       .  S
C1740      C1741   1.408       .  A
C1741      C1742   1.397       .  A
C1741      F1748   1.359       .  S
C1742      C1743   1.407       .  A
C1742      F1747   1.359       .  S
C1743      C1744   1.415   1_565  A
C1744      F1745   1.357       .  S
C1749      C1750   1.407       .  A
C1749      C1754   1.396       .  A
C1749      F1756   1.358       .  S
C1750      C1751   1.399       .  A
C1751      C1752   1.397       .  A
C1751      F1758   1.358       .  S
C1752      C1753   1.408       .  A
C1752      F1757   1.358       .  S
C1753      C1754   1.400       .  A
C1754      F1755   1.358       .  S
C1759      C1760   1.397       .  A
C1759      C1764   1.390       .  A
C1759      F1766   1.358       .  S
C1760      C1761   1.405       .  A
C1761      C1762   1.393       .  A
C1761      F1768   1.359       .  S
C1762      C1763   1.400       .  A
C1762      F1767   1.358       .  S
C1763      C1764   1.405       .  A
C1764      F1765   1.358       .  S
C1769      C1770   1.408       .  A
C1769      C1774   1.392       .  A
C1769      F1776   1.358       .  S
C1770      C1771   1.403       .  A
C1771      C1772   1.384       .  A
C1771      F1778   1.359       .  S
C1772      C1773   1.412       .  A
C1772      F1777   1.359       .  S
C1773      C1774   1.404       .  A
C1774      F1775   1.358       .  S
C1779      C1780   1.413   1_545  A
C1779      C1784   1.418       .  A
C1779      F1786   1.357       .  S
C1780      C1781   1.408       .  A
C1781      C1782   1.404       .  A
C1781      F1788   1.358       .  S
C1782      C1783   1.410       .  A
C1782      F1787   1.357       .  S
C1783      C1784   1.412   1_565  A
C1784      F1785   1.357       .  S
C1789      C1790   1.401       .  A
C1789      C1794   1.396       .  A
C1789      F1796   1.358       .  S
C1790      C1791   1.399       .  A
C1791      C1792   1.387       .  A
C1791      F1798   1.358       .  S
C1792      C1793   1.399       .  A
C1792      F1797   1.359       .  S
C1793      C1794   1.402       .  A
C1794      F1795   1.358       .  S
C1799      C1800   1.403       .  A
C1799      C1804   1.388       .  A
C1799      F1806   1.359       .  S
C1800      C1801   1.402       .  A
C1801      C1802   1.393       .  A
C1801      F1808   1.358       .  S
C1802      C1803   1.408       .  A
C1802      F1807   1.358       .  S
C1803      C1804   1.406       .  A
C1804      F1805   1.358       .  S
C1809      C1810   1.407       .  A
C1809      C1814   1.395       .  A
C1809      F1816   1.359       .  S
C1810      C1811   1.414       .  A
C1811      C1812   1.418       .  A
C1811      F1818   1.357       .  S
C1812      C1813   1.409       .  A
C1812      F1817   1.357       .  S
C1813      C1814   1.409       .  A
C1814      F1815   1.359       .  S
C1819      C1820   1.408       .  A
C1819      C1824   1.413   1_565  A
C1819      F1826   1.357       .  S
C1820      C1821   1.411       .  A
C1821      C1822   1.410   1_565  A
C1821      F1828   1.358       .  S
C1822      C1823   1.409       .  A
C1822      F1827   1.358       .  S
C1823      C1824   1.411       .  A
C1824      F1825   1.357       .  S
C1829      C1830   1.407       .  A
C1829      C1834   1.398       .  A
C1829      F1836   1.359       .  S
C1830      C1831   1.399       .  A
C1831      C1832   1.395       .  A
C1831      F1838   1.358       .  S
C1832      C1833   1.407       .  A
C1832      F1837   1.358       .  S
C1833      C1834   1.402       .  A
C1834      F1835   1.358       .  S
C1839      C1840   1.399       .  A
C1839      C1844   1.399       .  A
C1839      F1846   1.357       .  S
C1840      C1841   1.407       .  A
C1841      C1842   1.394       .  A
C1841      F1848   1.357       .  S
C1842      C1843   1.400       .  A
C1842      F1847   1.359       .  S
C1843      C1844   1.409       .  A
C1844      F1845   1.358       .  S
C1849      C1850   1.404       .  A
C1849      C1854   1.395       .  A
C1849      F1856   1.358       .  S
C1850      C1851   1.406       .  A
C1851      C1852   1.397       .  A
C1851      F1858   1.358       .  S
C1852      C1853   1.404       .  A
C1852      F1857   1.358       .  S
C1853      C1854   1.405       .  A
C1854      F1855   1.358       .  S
C1859      C1860   1.415       .  A
C1859      C1864   1.416       .  A
C1859      F1866   1.357       .  S
C1860      C1861   1.408   1_545  A
C1861      C1862   1.400       .  A
C1861      F1868   1.358       .  S
C1862      C1863   1.416   1_565  A
C1862      F1867   1.358       .  S
C1863      C1864   1.414       .  A
C1864      F1865   1.357       .  S
C1869      C1870   1.405       .  A
C1869      C1874   1.386       .  A
C1869      F1876   1.355       .  S
C1870      C1871   1.398       .  A
C1871      C1872   1.397       .  A
C1871      F1878   1.358       .  S
C1872      C1873   1.407       .  A
C1872      F1877   1.358       .  S
C1873      C1874   1.396       .  A
C1874      F1875   1.359       .  S
C1879      C1880   1.403       .  A
C1879      C1884   1.398       .  A
C1879      F1886   1.357       .  S
C1880      C1881   1.413       .  A
C1881      C1882   1.395       .  A
C1881      F1888   1.359       .  S
C1882      C1883   1.398       .  A
C1882      F1887   1.358       .  S
C1883      C1884   1.408       .  A
C1884      F1885   1.358       .  S
C1889      C1890   1.410       .  A
C1889      C1894   1.408       .  A
C1889      F1896   1.357       .  S
C1890      C1891   1.406       .  A
C1891      C1892   1.389       .  A
C1891      F1898   1.359       .  S
C1892      C1893   1.408       .  A
C1892      F1897   1.359       .  S
C1893      C1894   1.408       .  A
C1894      F1895   1.357       .  S
C1899      C1900   1.411   1_565  A
C1899      C1904   1.415       .  A
C1899      F1906   1.357       .  S
C1900      C1901   1.410       .  A
C1901      C1902   1.408       .  A
C1901      F1908   1.358       .  S
C1902      C1903   1.409       .  A
C1902      F1907   1.358       .  S
C1903      C1904   1.411   1_545  A
C1904      F1905   1.358       .  S
C1909      C1910   1.405       .  A
C1909      C1914   1.396       .  A
C1909      F1916   1.358       .  S
C1910      C1911   1.407       .  A
C1911      C1912   1.389       .  A
C1911      F1918   1.359       .  S
C1912      C1913   1.405       .  A
C1912      F1917   1.359       .  S
C1913      C1914   1.408       .  A
C1914      F1915   1.358       .  S
C1919      C1920   1.409       .  A
C1919      C1924   1.412       .  A
C1919      F1926   1.357       .  S
C1920      C1921   1.412       .  A
C1921      C1922   1.403       .  A
C1921      F1928   1.358       .  S
C1922      C1923   1.410       .  A
C1922      F1927   1.358       .  S
C1923      C1924   1.415       .  A
C1924      F1925   1.357       .  S
C1929      C1930   1.401       .  A
C1929      C1934   1.399       .  A
C1929      F1936   1.357       .  S
C1930      C1931   1.404       .  A
C1931      C1932   1.396       .  A
C1931      F1938   1.359       .  S
C1932      C1933   1.403       .  A
C1932      F1937   1.359       .  S
C1933      C1934   1.406       .  A
C1934      F1935   1.358       .  S
C1939      C1940   1.404       .  A
C1939      C1944   1.397       .  A
C1939      F1946   1.359       .  S
C1940      C1941   1.417       .  A
C1941      C1942   1.418       .  A
C1941      F1948   1.357       .  S
C1942      C1943   1.407       .  A
C1942      F1947   1.357       .  S
C1943      C1944   1.413       .  A
C1944      F1945   1.359       .  S
C1949      C1950   1.415       .  A
C1949      C1954   1.422   1_455  A
C1949      F1956   1.357       .  S
C1950      C1951   1.413       .  A
C1951      C1952   1.408   1_455  A
C1951      F1958   1.358       .  S
C1952      C1953   1.408       .  A
C1952      F1957   1.358       .  S
C1953      C1954   1.413       .  A
C1954      F1955   1.357       .  S
C1959      C1960   1.399       .  A
C1959      C1964   1.388       .  A
C1959      F1966   1.359       .  S
C1960      C1961   1.402       .  A
C1961      C1962   1.394       .  A
C1961      F1968   1.358       .  S
C1962      C1963   1.409       .  A
C1962      F1967   1.358       .  S
C1963      C1964   1.408       .  A
C1964      F1965   1.356       .  S
C1969      C1970   1.396       .  A
C1969      C1974   1.396       .  A
C1969      F1976   1.357       .  S
C1970      C1971   1.407       .  A
C1971      C1972   1.392       .  A
C1971      F1978   1.359       .  S
C1972      C1973   1.398       .  A
C1972      F1977   1.358       .  S
C1973      C1974   1.410       .  A
C1974      F1975   1.358       .  S
C1979      C1980   1.398       .  A
C1979      C1984   1.387       .  A
C1979      F1986   1.359       .  S
C1980      C1981   1.404       .  A
C1981      C1982   1.395       .  A
C1981      F1988   1.358       .  S
C1982      C1983   1.407       .  A
C1982      F1987   1.358       .  S
C1983      C1984   1.411       .  A
C1984      F1985   1.359       .  S
C1989      C1990   1.402       .  A
C1989      C1994   1.395       .  A
C1989      F1996   1.358       .  S
C1990      C1991   1.400       .  A
C1991      C1992   1.389       .  A
C1991      F1998   1.358       .  S
C1992      C1993   1.399       .  A
C1992      F1997   1.358       .  S
C1993      C1994   1.402       .  A
C1994      F1995   1.358       .  S
C1999      C2000   1.407       .  A
C1999      C2004   1.400       .  A
C1999      F2006   1.358       .  S
C2000      C2001   1.411   1_455  A
C2001      C2002   1.415       .  A
C2001      F2008   1.357       .  S
C2002      C2003   1.410   1_655  A
C2002      F2007   1.357       .  S
C2003      C2004   1.408       .  A
C2004      F2005   1.358       .  S
C2009      C2010   1.402       .  A
C2009      C2014   1.390       .  A
C2009      F2016   1.358       .  S
C2010      C2011   1.396       .  A
C2011      C2012   1.381       .  A
C2011      F2018   1.359       .  S
C2012      C2013   1.411       .  A
C2012      F2017   1.360       .  S
C2013      C2014   1.405       .  A
C2014      F2015   1.358       .  S
C2019      C2020   1.402       .  A
C2019      C2024   1.392       .  A
C2019      F2026   1.359       .  S
C2020      C2021   1.395       .  A
C2021      C2022   1.391       .  A
C2021      F2028   1.358       .  S
C2022      C2023   1.412       .  A
C2022      F2027   1.358       .  S
C2023      C2024   1.405       .  A
C2024      F2025   1.358       .  S
C2029      C2030   1.405       .  A
C2029      C2034   1.389       .  A
C2029      F2036   1.358       .  S
C2030      C2031   1.399       .  A
C2031      C2032   1.393       .  A
C2031      F2038   1.358       .  S
C2032      C2033   1.407       .  A
C2032      F2037   1.358       .  S
C2033      C2034   1.399       .  A
C2034      F2035   1.358       .  S
C2039      C2040   1.407       .  A
C2039      C2044   1.401       .  A
C2039      F2046   1.358       .  S
C2040      C2041   1.407       .  A
C2041      C2042   1.397       .  A
C2041      F2048   1.358       .  S
C2042      C2043   1.403       .  A
C2042      F2047   1.358       .  S
C2043      C2044   1.407       .  A
C2044      F2045   1.358       .  S
C2049      C2050   1.408   1_655  A
C2049      C2054   1.407       .  A
C2049      F2056   1.358       .  S
C2050      C2051   1.411       .  A
C2051      C2052   1.417       .  A
C2051      F2058   1.357       .  S
C2052      C2053   1.412       .  A
C2052      F2057   1.357       .  S
C2053      C2054   1.409   1_455  A
C2054      F2055   1.357       .  S
C2059      C2060   1.402       .  A
C2059      C2064   1.396       .  A
C2059      F2066   1.358       .  S
C2060      C2061   1.402       .  A
C2061      C2062   1.390       .  A
C2061      F2068   1.359       .  S
C2062      C2063   1.405       .  A
C2062      F2067   1.359       .  S
C2063      C2064   1.404       .  A
C2064      F2065   1.358       .  S
C2069      C2070   1.405       .  A
C2069      C2074   1.394       .  A
C2069      F2076   1.358       .  S
C2070      C2071   1.405       .  A
C2071      C2072   1.400       .  A
C2071      F2078   1.358       .  S
C2072      C2073   1.406       .  A
C2072      F2077   1.358       .  S
C2073      C2074   1.403       .  A
C2074      F2075   1.358       .  S
C2079      C2080   1.414       .  A
C2079      C2084   1.394       .  A
C2079      F2086   1.359       .  S
C2080      C2081   1.411       .  A
C2081      C2082   1.422       .  A
C2081      F2088   1.356       .  S
C2082      C2083   1.415       .  A
C2082      F2087   1.357       .  S
C2083      C2084   1.402       .  A
C2084      F2085   1.359       .  S
C2089      C2090   1.410   1_556  A
C2089      C2094   1.407       .  A
C2089      F2096   1.358   1_556  S
C2090      C2091   1.413   1_554  A
C2091      C2092   1.418       .  A
C2091      F2098   1.357   1_556  S
C2092      C2093   1.411       .  A
C2092      F2097   1.357       .  S
C2093      C2094   1.408       .  A
C2094      F2095   1.358       .  S
C2099      C2100   1.401       .  A
C2099      C2104   1.393       .  A
C2099      F2106   1.358       .  S
C2100      C2101   1.397       .  A
C2101      C2102   1.390       .  A
C2101      F2108   1.358       .  S
C2102      C2103   1.410       .  A
C2102      F2107   1.358       .  S
C2103      C2104   1.408       .  A
C2104      F2105   1.358       .  S
C2109      C2110   1.399       .  A
C2109      C2114   1.397       .  A
C2109      F2116   1.358       .  S
C2110      C2111   1.405       .  A
C2111      C2112   1.393       .  A
C2111      F2118   1.358       .  S
C2112      C2113   1.397       .  A
C2112      F2117   1.358       .  S
C2113      C2114   1.406       .  A
C2114      F2115   1.358       .  S
C2119      C2120   1.406       .  A
C2119      C2124   1.398       .  A
C2119      F2126   1.358       .  S
C2120      C2121   1.402       .  A
C2121      C2122   1.401       .  A
C2121      F2128   1.358       .  S
C2122      C2123   1.408       .  A
C2122      F2127   1.355       .  S
C2123      C2124   1.402       .  A
C2124      F2125   1.358       .  S
C2129      C2130   1.409       .  A
C2129      C2134   1.410       .  A
C2129      F2136   1.358       .  S
C2130      C2131   1.415       .  A
C2131      C2132   1.405       .  A
C2131      F2138   1.358       .  S
C2132      C2133   1.410       .  A
C2132      F2137   1.358       .  S
C2133      C2134   1.418       .  A
C2134      F2135   1.358       .  S
C2139      C2140   1.398       .  A
C2139      C2144   1.389       .  A
C2139      F2146   1.359       .  S
C2140      C2141   1.405       .  A
C2141      C2142   1.394   1_554  A
C2141      F2148   1.358       .  S
C2142      C2143   1.402   1_556  A
C2142      F2147   1.358       .  S
C2143      C2144   1.407       .  A
C2144      F2145   1.358       .  S
C2149      C2150   1.407       .  A
C2149      C2154   1.394       .  A
C2149      F2156   1.358       .  S
C2150      C2151   1.404       .  A
C2151      C2152   1.393       .  A
C2151      F2158   1.358       .  S
C2152      C2153   1.406       .  A
C2152      F2157   1.358       .  S
C2153      C2154   1.406       .  A
C2154      F2155   1.358       .  S
C2159      C2160   1.397       .  A
C2159      C2164   1.383       .  A
C2159      F2166   1.358       .  S
C2160      C2161   1.402       .  A
C2161      C2162   1.401       .  A
C2161      F2168   1.357       .  S
C2162      C2163   1.406       .  A
C2162      F2167   1.356       .  S
C2163      C2164   1.405       .  A
C2164      F2165   1.359       .  S
C2169      C2170   1.410   1_554  A
C2169      C2174   1.410       .  A
C2169      F2176   1.359       .  S
C2170      C2171   1.409       .  A
C2171      C2172   1.414       .  A
C2171      F2178   1.357       .  S
C2172      C2173   1.409       .  A
C2172      F2177   1.357       .  S
C2173      C2174   1.412   1_556  A
C2174      F2175   1.360       .  S
C2179      C2180   1.405       .  A
C2179      C2184   1.390       .  A
C2179      F2186   1.359       .  S
C2180      C2181   1.406       .  A
C2181      C2182   1.406       .  A
C2181      F2188   1.357       .  S
C2182      C2183   1.410       .  A
C2182      F2187   1.357       .  S
C2183      C2184   1.408       .  A
C2184      F2185   1.359       .  S
C2189      C2190   1.407       .  A
C2189      C2194   1.395       .  A
C2189      F2196   1.358       .  S
C2190      C2191   1.403       .  A
C2191      C2192   1.384       .  A
C2191      F2198   1.359       .  S
C2192      C2193   1.405       .  A
C2192      F2197   1.359       .  S
C2193      C2194   1.405       .  A
C2194      F2195   1.357       .  S
C2199      C2200   1.402       .  A
C2199      C2204   1.398       .  A
C2199      F2206   1.358       .  S
C2200      C2201   1.403       .  A
C2201      C2202   1.393       .  A
C2201      F2208   1.359       .  S
C2202      C2203   1.401       .  A
C2202      F2207   1.358       .  S
C2203      C2204   1.404       .  A
C2204      F2205   1.358       .  S
C2209      C2210   1.403       .  A
C2209      C2214   1.397       .  A
C2209      F2216   1.358       .  S
C2210      C2211   1.402       .  A
C2211      C2212   1.388       .  A
C2211      F2218   1.359       .  S
C2212      C2213   1.406       .  A
C2212      F2217   1.359       .  S
C2213      C2214   1.407       .  A
C2214      F2215   1.358       .  S
C2219      C2220   1.415       .  A
C2219      C2224   1.409       .  A
C2219      F2226   1.357       .  S
C2220      C2221   1.406       .  A
C2221      C2222   1.398       .  A
C2221      F2228   1.358       .  S
C2222      C2223   1.411       .  A
C2222      F2227   1.359       .  S
C2223      C2224   1.405       .  A
C2224      F2225   1.357       .  S
C2229      C2230   1.407       .  A
C2229      C2234   1.408       .  A
C2229      F2236   1.358       .  S
C2230      C2231   1.407       .  A
C2231      C2232   1.407       .  A
C2231      F2238   1.358       .  S
C2232      C2233   1.409   1_556  A
C2232      F2237   1.357   1_556  S
C2233      C2234   1.408   1_554  A
C2234      F2235   1.357       .  S
C2239      C2240   1.401       .  A
C2239      C2244   1.401       .  A
C2239      F2246   1.358       .  S
C2240      C2241   1.408       .  A
C2241      C2242   1.398       .  A
C2241      F2248   1.358       .  S
C2242      C2243   1.399       .  A
C2242      F2247   1.358       .  S
C2243      C2244   1.409       .  A
C2244      F2245   1.358       .  S
C2249      C2250   1.397       .  A
C2249      C2254   1.397       .  A
C2249      F2256   1.358       .  S
C2250      C2251   1.406       .  A
C2251      C2252   1.393       .  A
C2251      F2258   1.358       .  S
C2252      C2253   1.399       .  A
C2252      F2257   1.358       .  S
C2253      C2254   1.408       .  A
C2254      F2255   1.358       .  S
C2259      C2260   1.415       .  A
C2259      C2264   1.399       .  A
C2259      F2266   1.358       .  S
C2260      C2261   1.411       .  A
C2261      C2262   1.397       .  A
C2261      F2268   1.358       .  S
C2262      C2263   1.407       .  A
C2262      F2267   1.358       .  S
C2263      C2264   1.403       .  A
C2264      F2265   1.358       .  S
C2269      C2270   1.417       .  A
C2269      C2274   1.399       .  A
C2269      F2276   1.358       .  S
C2270      C2271   1.413       .  A
C2271      C2272   1.416       .  A
C2271      F2278   1.357       .  S
C2272      C2273   1.416       .  A
C2272      F2277   1.357       .  S
C2273      C2274   1.409       .  A
C2274      F2275   1.358       .  S
C2279      C2280   1.397       .  A
C2279      C2284   1.395       .  A
C2279      F2286   1.358       .  S
C2280      C2281   1.410       .  A
C2281      C2282   1.399       .  A
C2281      F2288   1.358       .  S
C2282      C2283   1.403       .  A
C2282      F2287   1.358       .  S
C2283      C2284   1.412       .  A
C2284      F2285   1.357       .  S
C2289      C2290   1.401       .  A
C2289      C2294   1.404       .  A
C2289      F2296   1.358       .  S
C2290      C2291   1.408       .  A
C2291      C2292   1.400       .  A
C2291      F2298   1.358       .  S
C2292      C2293   1.401       .  A
C2292      F2297   1.358       .  S
C2293      C2294   1.410       .  A
C2294      F2295   1.358       .  S
C2299      C2300   1.406       .  A
C2299      C2304   1.395       .  A
C2299      F2306   1.358       .  S
C2300      C2301   1.409       .  A
C2301      C2302   1.405       .  A
C2301      F2308   1.357       .  S
C2302      C2303   1.407       .  A
C2302      F2307   1.358       .  S
C2303      C2304   1.407       .  A
C2304      F2305   1.359       .  S
C2309      C2310   1.414       .  A
C2309      C2314   1.408       .  A
C2309      F2316   1.357       .  S
C2310      C2311   1.415       .  A
C2311      C2312   1.410       .  A
C2311      F2318   1.358       .  S
C2312      C2313   1.412       .  A
C2312      F2317   1.358       .  S
C2313      C2314   1.411       .  A
C2314      F2315   1.358       .  S
C2319      C2320   1.405       .  A
C2319      C2324   1.408       .  A
C2319      F2326   1.358       .  S
C2320      C2321   1.411   1_556  A
C2321      C2322   1.413       .  A
C2321      F2328   1.358       .  S
C2322      C2323   1.409   1_554  A
C2322      F2327   1.358       .  S
C2323      C2324   1.413       .  A
C2324      F2325   1.358       .  S
C2329      C2330   1.406       .  A
C2329      C2334   1.393       .  A
C2329      F2336   1.359       .  S
C2330      C2331   1.406       .  A
C2331      C2332   1.402       .  A
C2331      F2338   1.358       .  S
C2332      C2333   1.407       .  A
C2332      F2337   1.358       .  S
C2333      C2334   1.403       .  A
C2334      F2335   1.358       .  S
C2339      C2340   1.407       .  A
C2339      C2344   1.392       .  A
C2339      F2346   1.359       .  S
C2340      C2341   1.403       .  A
C2341      C2342   1.392       .  A
C2341      F2348   1.358       .  S
C2342      C2343   1.402       .  A
C2342      F2347   1.358       .  S
C2343      C2344   1.400       .  A
C2344      F2345   1.358       .  S
C2349      C2350   1.408       .  A
C2349      C2354   1.414       .  A
C2349      F2356   1.357       .  S
C2350      C2351   1.412       .  A
C2351      C2352   1.399       .  A
C2351      F2358   1.359       .  S
C2352      C2353   1.403       .  A
C2352      F2357   1.358       .  S
C2353      C2354   1.413       .  A
C2354      F2355   1.357       .  S
C2359      C2360   1.401       .  A
C2359      C2364   1.391       .  A
C2359      F2366   1.359       .  S
C2360      C2361   1.405       .  A
C2361      C2362   1.403       .  A
C2361      F2368   1.357       .  S
C2362      C2363   1.405       .  A
C2362      F2367   1.358       .  S
C2363      C2364   1.404       .  A
C2364      F2365   1.359       .  S
C2369      C2370   1.410       .  A
C2369      C2374   1.397       .  A
C2369      F2376   1.358       .  S
C2370      C2371   1.407       .  A
C2371      C2372   1.396       .  A
C2371      F2378   1.358       .  S
C2372      C2373   1.408       .  A
C2372      F2377   1.358       .  S
C2373      C2374   1.405       .  A
C2374      F2375   1.358       .  S
C2379      C2380   1.410       .  A
C2379      C2384   1.414       .  A
C2379      F2386   1.357       .  S
C2380      C2381   1.410       .  A
C2381      C2382   1.403       .  A
C2381      F2388   1.358       .  S
C2382      C2383   1.404       .  A
C2382      F2387   1.358       .  S
C2383      C2384   1.409       .  A
C2384      F2385   1.357       .  S
C2389      C2390   1.412       .  A
C2389      C2394   1.418   1_545  A
C2389      F2396   1.357       .  S
C2390      C2391   1.412       .  A
C2391      C2392   1.402   1_545  A
C2391      F2398   1.358       .  S
C2392      C2393   1.409       .  A
C2392      F2397   1.358       .  S
C2393      C2394   1.415       .  A
C2394      F2395   1.357       .  S
C2399      C2400   1.410       .  A
C2399      C2404   1.399       .  A
C2399      F2406   1.358       .  S
C2400      C2401   1.399       .  A
C2401      C2402   1.396       .  A
C2401      F2408   1.358       .  S
C2402      C2403   1.410       .  A
C2402      F2407   1.358       .  S
C2403      C2404   1.402       .  A
C2404      F2405   1.358       .  S
C2409      C2410   1.398       .  A
C2409      C2414   1.397       .  A
C2409      F2416   1.358       .  S
C2410      C2411   1.403       .  A
C2411      C2412   1.394       .  A
C2411      F2418   1.359       .  S
C2412      C2413   1.406       .  A
C2412      F2417   1.358       .  S
C2413      C2414   1.411       .  A
C2414      F2415   1.358       .  S
C2419      C2420   1.405       .  A
C2419      C2424   1.395       .  A
C2419      F2426   1.358       .  S
C2420      C2421   1.414       .  A
C2421      C2422   1.394       .  A
C2421      F2428   1.358       .  S
C2422      C2423   1.403       .  A
C2422      F2427   1.358       .  S
C2423      C2424   1.410       .  A
C2424      F2425   1.358       .  S
C2429      C2430   1.403       .  A
C2429      C2434   1.389       .  A
C2429      F2436   1.358       .  S
C2430      C2431   1.403       .  A
C2431      C2432   1.391       .  A
C2431      F2438   1.358       .  S
C2432      C2433   1.407       .  A
C2432      F2437   1.358       .  S
C2433      C2434   1.405       .  A
C2434      F2435   1.359       .  S
C2439      C2440   1.410       .  A
C2439      C2444   1.407       .  A
C2439      F2446   1.358       .  S
C2440      C2441   1.416   1_545  A
C2441      C2442   1.407       .  A
C2441      F2448   1.358       .  S
C2442      C2443   1.410       .  A
C2442      F2447   1.358       .  S
C2443      C2444   1.415   1_565  A
C2444      F2445   1.358       .  S
C2449      C2450   1.410       .  A
C2449      C2454   1.395       .  A
C2449      F2456   1.359       .  S
C2450      C2451   1.406       .  A
C2451      C2452   1.401       .  A
C2451      F2458   1.358       .  S
C2452      C2453   1.406       .  A
C2452      F2457   1.358       .  S
C2453      C2454   1.401       .  A
C2454      F2455   1.358       .  S
C2459      C2460   1.414       .  A
C2459      C2464   1.378       .  A
C2459      F2466   1.358       .  S
C2460      C2461   1.406       .  A
C2461      C2462   1.396       .  A
C2461      F2468   1.357       .  S
C2462      C2463   1.402       .  A
C2462      F2467   1.358       .  S
C2463      C2464   1.392       .  A
C2464      F2465   1.360       .  S
C2469      C2470   1.413       .  A
C2469      C2474   1.403       .  A
C2469      F2476   1.358       .  S
C2470      C2471   1.415       .  A
C2471      C2472   1.405       .  A
C2471      F2478   1.358       .  S
C2472      C2473   1.409       .  A
C2472      F2477   1.358       .  S
C2473      C2474   1.410       .  A
C2474      F2475   1.358       .  S
C2479      C2480   1.410       .  A
C2479      C2484   1.397       .  A
C2479      F2486   1.358       .  S
C2480      C2481   1.412       .  A
C2481      C2482   1.387       .  A
C2481      F2488   1.359       .  S
C2482      C2483   1.401       .  A
C2482      F2487   1.359       .  S
C2483      C2484   1.404       .  A
C2484      F2485   1.358       .  S
C2489      C2490   1.412   1_565  A
C2489      C2494   1.413       .  A
C2489      F2496   1.357       .  S
C2490      C2491   1.414       .  A
C2491      C2492   1.397       .  A
C2491      F2498   1.358       .  S
C2492      C2493   1.403       .  A
C2492      F2497   1.359       .  S
C2493      C2494   1.409   1_545  A
C2494      F2495   1.357       .  S
C2499      C2500   1.408   1_545  A
C2499      C2504   1.410       .  A
C2499      F2506   1.358       .  S
C2500      C2501   1.406       .  A
C2501      C2502   1.407       .  A
C2501      F2508   1.358       .  S
C2502      C2503   1.410       .  A
C2502      F2507   1.358       .  S
C2503      C2504   1.408   1_565  A
C2504      F2505   1.358       .  S
C2509      C2510   1.408       .  A
C2509      C2514   1.392       .  A
C2509      F2516   1.359       .  S
C2510      C2511   1.405       .  A
C2511      C2512   1.397       .  A
C2511      F2518   1.358       .  S
C2512      C2513   1.411       .  A
C2512      F2517   1.358       .  S
C2513      C2514   1.407       .  A
C2514      F2515   1.358       .  S
C2519      C2520   1.391       .  A
C2519      C2524   1.383       .  A
C2519      F2526   1.359       .  S
C2520      C2521   1.402       .  A
C2521      C2522   1.398       .  A
C2521      F2528   1.358       .  S
C2522      C2523   1.407       .  A
C2522      F2527   1.358       .  S
C2523      C2524   1.416       .  A
C2524      F2525   1.359       .  S
C2529      C2530   1.415       .  A
C2529      C2534   1.407       .  A
C2529      F2536   1.358       .  S
C2530      C2531   1.410       .  A
C2531      C2532   1.402       .  A
C2531      F2538   1.358       .  S
C2532      C2533   1.415       .  A
C2532      F2537   1.358       .  S
C2533      C2534   1.410       .  A
C2534      F2535   1.358       .  S
C2539      C2540   1.404       .  A
C2539      C2544   1.394       .  A
C2539      F2546   1.358       .  S
C2540      C2541   1.410       .  A
C2541      C2542   1.406       .  A
C2541      F2548   1.357       .  S
C2542      C2543   1.406       .  A
C2542      F2547   1.357       .  S
C2543      C2544   1.408       .  A
C2544      F2545   1.359       .  S
C2549      C2550   1.408       .  A
C2549      C2554   1.388       .  A
C2549      F2556   1.359       .  S
C2550      C2551   1.407       .  A
C2551      C2552   1.388       .  A
C2551      F2558   1.358       .  S
C2552      C2553   1.409       .  A
C2552      F2557   1.358       .  S
C2553      C2554   1.408       .  A
C2554      F2555   1.358       .  S
C2559      C2560   1.416       .  A
C2559      C2564   1.417       .  A
C2559      F2566   1.357       .  S
C2560      C2561   1.415       .  A
C2561      C2562   1.405       .  A
C2561      F2568   1.358       .  S
C2562      C2563   1.414       .  A
C2562      F2567   1.358       .  S
C2563      C2564   1.414       .  A
C2564      F2565   1.357       .  S
C2569      C2570   1.411       .  A
C2569      C2574   1.413   1_655  A
C2569      F2576   1.358       .  S
C2570      C2571   1.409       .  A
C2571      C2572   1.415   1_655  A
C2571      F2578   1.357       .  S
C2572      C2573   1.412       .  A
C2572      F2577   1.357       .  S
C2573      C2574   1.411       .  A
C2574      F2575   1.358       .  S
C2579      C2580   1.406       .  A
C2579      C2584   1.402       .  A
C2579      F2586   1.357       .  S
C2580      C2581   1.398       .  A
C2581      C2582   1.393       .  A
C2581      F2588   1.359       .  S
C2582      C2583   1.411       .  A
C2582      F2587   1.354       .  S
C2583      C2584   1.409       .  A
C2584      F2585   1.357       .  S
C2589      C2590   1.394       .  A
C2589      C2594   1.390       .  A
C2589      F2596   1.358       .  S
C2590      C2591   1.406       .  A
C2591      C2592   1.391       .  A
C2591      F2598   1.357       .  S
C2592      C2593   1.394       .  A
C2592      F2597   1.358       .  S
C2593      C2594   1.406       .  A
C2594      F2595   1.357       .  S
C2599      C2600   1.398       .  A
C2599      C2604   1.389       .  A
C2599      F2606   1.358       .  S
C2600      C2601   1.405       .  A
C2601      C2602   1.393       .  A
C2601      F2608   1.358       .  S
C2602      C2603   1.404       .  A
C2602      F2607   1.358       .  S
C2603      C2604   1.411       .  A
C2604      F2605   1.359       .  S
C2609      C2610   1.398       .  A
C2609      C2614   1.386       .  A
C2609      F2616   1.359       .  S
C2610      C2611   1.403       .  A
C2611      C2612   1.398       .  A
C2611      F2618   1.358       .  S
C2612      C2613   1.404       .  A
C2612      F2617   1.358       .  S
C2613      C2614   1.405       .  A
C2614      F2615   1.359       .  S
C2619      C2620   1.412       .  A
C2619      C2624   1.411       .  A
C2619      F2626   1.358       .  S
C2620      C2621   1.415   1_655  A
C2621      C2622   1.413       .  A
C2621      F2628   1.358       .  S
C2622      C2623   1.413   1_455  A
C2622      F2627   1.358       .  S
C2623      C2624   1.416       .  A
C2624      F2625   1.357       .  S
C2629      C2630   1.397       .  A
C2629      C2634   1.394       .  A
C2629      F2636   1.358       .  S
C2630      C2631   1.409       .  A
C2631      C2632   1.392       .  A
C2631      F2638   1.359       .  S
C2632      C2633   1.397       .  A
C2632      F2637   1.358       .  S
C2633      C2634   1.410       .  A
C2634      F2635   1.358       .  S
C2639      C2640   1.412       .  A
C2639      C2644   1.398       .  A
C2639      F2646   1.358       .  S
C2640      C2641   1.399       .  A
C2641      C2642   1.396       .  A
C2641      F2648   1.358       .  S
C2642      C2643   1.408       .  A
C2642      F2647   1.358       .  S
C2643      C2644   1.397       .  A
C2644      F2645   1.357       .  S
C2649      C2650   1.401       .  A
C2649      C2654   1.392       .  A
C2649      F2656   1.358       .  S
C2650      C2651   1.409       .  A
C2651      C2652   1.409       .  A
C2651      F2658   1.358       .  S
C2652      C2653   1.408       .  A
C2652      F2657   1.357       .  S
C2653      C2654   1.408       .  A
C2654      F2655   1.359       .  S
C2659      C2660   1.402       .  A
C2659      C2664   1.391       .  A
C2659      F2666   1.357       .  S
C2660      C2661   1.400       .  A
C2661      C2662   1.394       .  A
C2661      F2668   1.358       .  S
C2662      C2663   1.405       .  A
C2662      F2667   1.357       .  S
C2663      C2664   1.403       .  A
C2664      F2665   1.358       .  S
C2669      C2670   1.409       .  A
C2669      C2674   1.408       .  A
C2669      F2676   1.358       .  S
C2670      C2671   1.409   1_455  A
C2671      C2672   1.411       .  A
C2671      F2678   1.358       .  S
C2672      C2673   1.410   1_655  A
C2672      F2677   1.358       .  S
C2673      C2674   1.408       .  A
C2674      F2675   1.358       .  S
C2679      C2680   1.409   1_455  A
C2679      C2684   1.404       .  A
C2679      F2686   1.359       .  S
C2680      C2681   1.414       .  A
C2681      C2682   1.423       .  A
C2681      F2688   1.357       .  S
C2682      C2683   1.412       .  A
C2682      F2687   1.357       .  S
C2683      C2684   1.408   1_655  A
C2684      F2685   1.359       .  S
