geometry optimzed in LAMMPS
_audit_creation_date              2020-12-01 
_audit_creation_method            'lammps2cif' 
_symmetry_space_group_name_H-M    'P1' 
_symmetry_Int_Tables_number       1 
_symmetry_cell_setting            triclinic 
loop_ 
_symmetry_equiv_pos_as_xyz 
  x,y,z 
_cell_length_a                    28.6012313 
_cell_length_b                    29.087298422613607 
_cell_length_c                    29.31137622985946 
_cell_angle_alpha                 95.29157682202523 
_cell_angle_beta                  98.46244823248729 
_cell_angle_gamma                 126.06656052806305 
loop_ 
_atom_site_label 
_atom_site_type_symbol 
_atom_site_fract_x 
_atom_site_fract_y 
_atom_site_fract_z 
_atom_site_charge 
O1          O  0.42568559  0.48997518  0.29603498    -0.73900
O2          O  0.45096126  0.41435079  0.19994001    -0.74000
O3          O  0.46935424  0.42874669  0.29361799    -0.74000
O4          O  0.40889840  0.47900971  0.20087448    -0.74100
O5          O  0.50153911  0.56082693  0.21209715    -0.74000
O6          O  0.56089439  0.50938499  0.30146875    -0.74000
O7          O  0.54259243  0.49607458  0.20834655    -0.74000
O8          O  0.51872698  0.57134738  0.30705683    -0.74000
Ni9        Ni  0.43520371  0.45015954  0.24698676     1.25400
Ni10       Ni  0.53397580  0.53742850  0.25733913     1.25400
C11         C  0.46860120  0.54229582  0.31847923     0.88200
C12         C  0.50211678  0.44125177  0.19066777     0.88200
C13         C  0.52583996  0.46030889  0.31183242     0.88200
C14         C  0.44574958  0.52935280  0.19212774     0.88400
N15         N  0.73981289  0.36517820  0.41658626    -0.03000
C16         C  0.74565739  0.37267582  0.37158224    -0.00400
C17         C  0.69760409  0.36840631  0.34680951    -0.23300
C18         C  0.66062387  0.35676038  0.37609086    -0.23500
C19         C  0.68685936  0.35418934  0.41810680    -0.00500
H20         H  0.68909434  0.37095917  0.31023367     0.13300
H21         H  0.61849826  0.34982143  0.36743507     0.13300
N22         N  0.58413338  0.39339664  0.01398904    -0.03000
C23         C  0.57308690  0.40675955  0.05477969    -0.00400
C24         C  0.57081676  0.45306691  0.05471111    -0.23300
C25         C  0.57710965  0.46704914  0.51204705    -0.23500
C26         C  0.58485161  0.43015022  0.48773204    -0.00500
H27         H  0.55977892  0.47100699  0.08131508     0.13300
H28         H  0.57334237  0.49861236  0.49895018     0.13300
C29         C  0.60229293  0.35723466  0.00272188     0.03600
C30         C  0.64662805  0.37682385  0.97768490    -0.12500
C31         C  0.65829256  0.34019126  0.45817869     0.01100
C32         C  0.62972364  0.28452876  0.46750590    -0.11100
C33         C  0.58445133  0.26277320  0.49201380     0.03600
C34         C  0.57162612  0.29995593  0.51052758    -0.10500
H35         H  0.66893007  0.41955365  0.96995053     0.09200
H36         H  0.63818215  0.25597785  0.45131997     0.06700
H37         H  0.53494823  0.28277429  0.52710318     0.06600
N38         N  0.54235400  0.20039989  0.48759529    -0.02400
C39         C  0.50920021  0.16283319  0.44472495    -0.00400
C40         C  0.45396598  0.11569537  0.44756935    -0.23300
C41         C  0.45332107  0.12277266  0.49395653    -0.23500
C42         C  0.50830489  0.17439462  0.51828172    -0.00500
H43         H  0.42106512  0.07672536  0.42012401     0.13300
H44         H  0.41935058  0.08981293  0.50914627     0.13300
O45         O  0.49114245  0.93809606  0.25165127    -0.73900
O46         O  0.53508440  0.04761897  0.17004840    -0.74000
O47         O  0.54594328  0.05232270  0.26309770    -0.74000
O48         O  0.48114956  0.92995280  0.15401732    -0.74100
O49         O  0.39329188  0.91222468  0.14321332    -0.74000
O50         O  0.45663548  0.03266673  0.25410022    -0.74000
O51         O  0.44599388  0.02665105  0.16114133    -0.74000
O52         O  0.40168407  0.91780725  0.23968632    -0.74000
Ni53       Ni  0.51621840  0.99184720  0.20952206     1.25400
Ni54       Ni  0.42111473  0.97107985  0.19902509     1.25400
C55         C  0.44110417  0.91504729  0.26299254     0.88200
C56         C  0.49857800  0.05835673  0.15516565     0.88200
C57         C  0.51158878  0.06202675  0.27672472     0.88200
C58         C  0.42801763  0.90341582  0.12834007     0.88400
O59         O  0.98881506  0.39581224  0.13282150    -0.73900
O60         O  0.87753649  0.35929879  0.20962232    -0.74000
O61         O  0.87585401  0.36188290  0.11493563    -0.74000
O62         O  0.98824054  0.39130685  0.22477785    -0.74100
O63         O  0.02295914  0.48410145  0.24324736    -0.74000
O64         O  0.91505074  0.45550222  0.12907384    -0.74000
O65         O  0.91127239  0.45156736  0.22317837    -0.74000
O66         O  0.02697342  0.48958367  0.15176783    -0.74000
Ni67       Ni  0.93097271  0.37367291  0.16974154     1.25400
Ni68       Ni  0.96995051  0.47339338  0.18729119     1.25400
C69         C  0.02664735  0.44907111  0.13024850     0.88200
C70         C  0.87928303  0.40061004  0.23201385     0.88200
C71         C  0.87966587  0.40441644  0.10155574     0.88200
C72         C  0.02239761  0.44168227  0.25284280     0.88400
N73         N  0.40509729  0.62637487  0.50517847    -0.03000
C74         C  0.44794811  0.65459181  0.48073365    -0.00400
C75         C  0.50110864  0.70146433  0.51143393    -0.23300
C76         C  0.49372939  0.69588117  0.05607326    -0.23500
C77         C  0.43540168  0.64730087  0.05124115    -0.00500
H78         H  0.54393595  0.72832626  0.50287356     0.13300
H79         H  0.52995075  0.71799651  0.08776846     0.13300
C80         C  0.24094986  0.56081028  0.97367623     0.03600
C81         C  0.24476863  0.60616367  0.45699051    -0.12500
C82         C  0.30076726  0.65998598  0.46030808     0.01100
C83         C  0.35295908  0.66777252  0.48121866    -0.11100
C84         C  0.35049642  0.62078003  0.99289517     0.03600
C85         C  0.29437785  0.56832281  0.99109166    -0.10500
H86         H  0.20440182  0.59865389  0.43890643     0.09200
H87         H  0.39600556  0.70831319  0.48238124     0.06700
H88         H  0.29157526  0.53219057  0.00124054     0.06600
N89         N  0.18356836  0.50421791  0.96709060    -0.03000
C90         C  0.17097059  0.47614422  0.00322904    -0.00400
C91         C  0.15228850  0.41996993  0.98805053    -0.23300
C92         C  0.14798409  0.41117802  0.44073757    -0.23500
C93         C  0.16248276  0.46177622  0.42802754    -0.00500
H94         H  0.13281044  0.38533242  0.00711543     0.13300
H95         H  0.12423510  0.36903905  0.41699819     0.13300
N96         N  0.34802206  0.75878339  0.43816986    -0.03000
C97         C  0.34471303  0.77225437  0.39459930    -0.00400
C98         C  0.29902253  0.72285243  0.36056093    -0.23300
C99         C  0.27409941  0.67714695  0.38231852    -0.23500
C100        C  0.30519723  0.69945548  0.42930261    -0.00500
H101        H  0.28822242  0.71977203  0.32288600     0.13300
H102        H  0.24037504  0.63163380  0.36482864     0.13300
C103        C  0.12142119  0.48591421  0.30814335    -0.01400
C104        C  0.05866288  0.44907281  0.29814556     0.08300
C105        C  0.02971578  0.41568679  0.33057690    -0.01500
C106        C  0.06338453  0.42260182  0.37428646    -0.01500
C107        C  0.12650644  0.45735786  0.38331411     0.08400
C108        C  0.15444572  0.48587751  0.34872077    -0.01700
Br109      Br  0.23504448  0.51527021  0.35289584    -0.00200
Br110      Br  0.16221712  0.53489967  0.26596328    -0.00300
Br111      Br  0.02119953  0.38297090  0.42049498    -0.00300
Br112      Br  0.94366855  0.35928525  0.31521968    -0.00200
C113        C  0.11374386  0.45628048  0.11274199    -0.01400
C114        C  0.06988730  0.46439025  0.10114689     0.08300
C115        C  0.06813500  0.48865572  0.06208403    -0.01500
C116        C  0.10694896  0.50049689  0.03251456    -0.01500
C117        C  0.14770067  0.48743121  0.04178956     0.08400
C118        C  0.15382871  0.46981190  0.08416272    -0.01700
Br119      Br  0.21736185  0.46373102  0.10264040    -0.00200
Br120      Br  0.11764878  0.42450067  0.16676084    -0.00300
Br121      Br  0.10062520  0.53234663  0.97902409    -0.00300
Br122      Br  0.00819598  0.50034385  0.04634366    -0.00200
C123        C  0.43046361  0.83744359  0.50776379    -0.01400
C124        C  0.36923770  0.79715218  0.48459625     0.08300
C125        C  0.32755203  0.79213281  0.00906115    -0.01500
C126        C  0.34605343  0.82279844  0.05652634    -0.01500
C127        C  0.40773354  0.86487773  0.07971942     0.08400
C128        C  0.44979894  0.87293607  0.05396072    -0.01700
Br129      Br  0.53477727  0.93395786  0.07894918    -0.00200
Br130      Br  0.48863645  0.84495231  0.47700342    -0.00300
Br131      Br  0.28479869  0.80321391  0.08936775    -0.00300
Br132      Br  0.24403852  0.74501351  0.47602878    -0.00200
C133        C  0.44559263  0.85278138  0.31627756    -0.01400
C134        C  0.42896413  0.88821014  0.30540144     0.08300
C135        C  0.39994833  0.89827320  0.33590080    -0.01500
C136        C  0.37923982  0.86588629  0.37110089    -0.01500
C137        C  0.38969948  0.82523329  0.37823908     0.08400
C138        C  0.42653146  0.82211095  0.35256986    -0.01700
Br139      Br  0.44697891  0.77140847  0.36346926    -0.00200
Br140      Br  0.49029237  0.84179821  0.27927374    -0.00300
Br141      Br  0.33188195  0.87330861  0.40709088    -0.00300
Br142      Br  0.38963916  0.95773202  0.33126064    -0.00200
C143        C  0.55302622  0.09582219  0.36385085    -0.01400
C144        C  0.53383379  0.10480340  0.32085553     0.08300
C145        C  0.52487919  0.14743620  0.32132191    -0.01500
C146        C  0.52387457  0.17292304  0.36378463    -0.01500
C147        C  0.53365825  0.15690296  0.40578510     0.08400
C148        C  0.55228254  0.12146779  0.40640384    -0.01700
Br149      Br  0.56737572  0.10024455  0.46414537    -0.00200
Br150      Br  0.57324788  0.04307877  0.36444271    -0.00300
Br151      Br  0.50244251  0.22430541  0.36351203    -0.00300
Br152      Br  0.51290365  0.16976756  0.26364362    -0.00200
C153        C  0.48826866  0.16477235  0.09583668    -0.01400
C154        C  0.53066242  0.18163482  0.56955864     0.08300
C155        C  0.57571310  0.17609568  0.08385014    -0.01500
C156        C  0.56806498  0.13839128  0.11427765    -0.01500
C157        C  0.51552269  0.10783028  0.13126898     0.08400
C158        C  0.47837045  0.12580334  0.12502357    -0.01700
Br159      Br  0.41059087  0.09652090  0.15247094    -0.00200
Br160      Br  0.43720497  0.18711989  0.58541904    -0.00300
Br161      Br  0.62905651  0.12824879  0.12968683    -0.00300
Br162      Br  0.64833000  0.22075624  0.06306491    -0.00200
C163        C  0.87539666  0.43435471  0.31368648    -0.01400
C164        C  0.84762424  0.39077124  0.27111824     0.08300
C165        C  0.79168521  0.33697318  0.26807871    -0.01500
C166        C  0.76301048  0.32835894  0.30539387    -0.01500
C167        C  0.78776510  0.37419417  0.34546562     0.08400
C168        C  0.84482621  0.42677017  0.34960717    -0.01700
Br169      Br  0.87993963  0.49054410  0.40280719    -0.00200
Br170      Br  0.95678870  0.50428785  0.32485215    -0.00300
Br171      Br  0.68672204  0.25400551  0.29998901    -0.00300
Br172      Br  0.75084658  0.27610656  0.21118050    -0.00200
C173        C  0.82709126  0.34868460  0.01493830    -0.01400
C174        C  0.84532106  0.39506291  0.05269395     0.08300
C175        C  0.83351941  0.43448846  0.04211504    -0.01500
C176        C  0.80651240  0.42874437  0.99541040    -0.01500
C177        C  0.78421502  0.38006969  0.95923105     0.08400
C178        C  0.79391801  0.33973368  0.96959239    -0.01700
Br179      Br  0.75783864  0.26997260  0.92223817    -0.00200
Br180      Br  0.84877181  0.29771144  0.02269019    -0.00300
Br181      Br  0.79691931  0.48665530  0.48088300    -0.00300
Br182      Br  0.84840520  0.49390719  0.09133656    -0.00200
C183        C  0.47211800  0.36361662  0.12025764    -0.01400
C184        C  0.51551185  0.40847381  0.16033941     0.08300
C185        C  0.57289113  0.42193695  0.17088340    -0.01500
C186        C  0.59011886  0.40209753  0.13613807    -0.01500
C187        C  0.55160037  0.37231752  0.09087198     0.08400
C188        C  0.49022980  0.34307845  0.08694511    -0.01700
Br189      Br  0.43383648  0.28816156  0.02917530    -0.00200
Br190      Br  0.38974154  0.33390438  0.10728134    -0.00300
Br191      Br  0.67049063  0.42716342  0.14521880    -0.00300
Br192      Br  0.62750550  0.46624235  0.23221442    -0.00200
C193        C  0.60999213  0.48331689  0.37694649    -0.01400
C194        C  0.55082524  0.44234917  0.34784715     0.08300
C195        C  0.51314561  0.38724812  0.35890199    -0.01500
C196        C  0.52759549  0.37977013  0.40404218    -0.01500
C197        C  0.58119492  0.42585041  0.43676554     0.08400
C198        C  0.62425998  0.47550719  0.42195785    -0.01700
Br199      Br  0.70009513  0.53634151  0.46602375    -0.00200
Br200      Br  0.67234206  0.55147361  0.35801470    -0.00300
Br201      Br  0.46911605  0.31028806  0.42300497    -0.00300
Br202      Br  0.44160351  0.32164345  0.31328503    -0.00200
C203        C  0.41723769  0.61035748  0.39298608    -0.01400
C204        C  0.45035105  0.62244744  0.43907843     0.08300
C205        C  0.48788555  0.60518059  0.44505291    -0.01500
C206        C  0.49391327  0.57955435  0.40540061    -0.01500
C207        C  0.46104919  0.56848842  0.35966278     0.08400
C208        C  0.42036805  0.58114050  0.35384448    -0.01700
Br209      Br  0.36856687  0.55818452  0.29222515    -0.00200
Br210      Br  0.37188161  0.63834461  0.38187634    -0.00300
Br211      Br  0.54495066  0.55630084  0.41390100    -0.00300
Br212      Br  0.53157867  0.61547867  0.00708406    -0.00200
C213        C  0.39730776  0.55112367  0.07477882    -0.01400
C214        C  0.42000282  0.61045887  0.08711499     0.08300
C215        C  0.43888900  0.63777488  0.13551633    -0.01500
C216        C  0.44442812  0.61007763  0.17053773    -0.01500
C217        C  0.42562552  0.55252628  0.15788915     0.08400
C218        C  0.39696065  0.52163357  0.11047347    -0.01700
Br219      Br  0.36191100  0.44001850  0.09366582    -0.00200
Br220      Br  0.37519314  0.51051104  0.51008758    -0.00300
Br221      Br  0.48042170  0.65247256  0.23576852    -0.00300
Br222      Br  0.46010357  0.71462123  0.15403173    -0.00200
O223        O  0.42633393  0.49054085  0.79630602    -0.73900
O224        O  0.45124828  0.41432275  0.70041783    -0.74000
O225        O  0.46998780  0.42929326  0.79417037    -0.74000
O226        O  0.40926088  0.47904331  0.70111975    -0.74100
O227        O  0.50188567  0.56079556  0.71208007    -0.74000
O228        O  0.56150411  0.50978184  0.80167463    -0.74000
O229        O  0.54283185  0.49593904  0.70847732    -0.74000
O230        O  0.51937056  0.57182196  0.80708719    -0.74000
Ni231      Ni  0.43569453  0.45043883  0.74738651     1.25400
Ni232      Ni  0.53444038  0.53760027  0.75741925     1.25400
C233        C  0.46928081  0.54292143  0.81858532     0.88200
C234        C  0.50228412  0.44108584  0.69094639     0.88200
C235        C  0.52649975  0.46085261  0.81226367     0.88200
C236        C  0.44606674  0.52930201  0.69222278     0.88400
N237        N  0.74062625  0.36570525  0.91687248    -0.03000
C238        C  0.74638684  0.37321457  0.87185764    -0.00400
C239        C  0.69836142  0.36905481  0.84718249    -0.23300
C240        C  0.66146749  0.35744681  0.87653036    -0.23500
C241        C  0.68773284  0.35478984  0.91847888    -0.00500
H242        H  0.68978603  0.37160745  0.81061523     0.13300
H243        H  0.61936085  0.35055515  0.86795472     0.13300
N244        N  0.58308148  0.39282409  0.51363676    -0.03000
C245        C  0.57177746  0.40592960  0.55438032    -0.00400
C246        C  0.56922666  0.45206662  0.55433230    -0.23300
C247        C  0.57860685  0.46788760  0.01236467    -0.23500
C248        C  0.58604384  0.43074085  0.98803916    -0.00500
H249        H  0.55804872  0.46984382  0.58093717     0.13300
H250        H  0.57498434  0.49952281  0.99924364     0.13300
C251        C  0.60129691  0.35671856  0.50230254     0.03600
C252        C  0.64545107  0.37622088  0.47707708    -0.12500
C253        C  0.65919706  0.34067190  0.95854393     0.01100
C254        C  0.63024972  0.28481401  0.96750629    -0.11100
C255        C  0.58488126  0.26301827  0.99190926     0.03600
C256        C  0.57227876  0.30031063  0.01063662    -0.10500
H257        H  0.66753405  0.41884238  0.46911182     0.09200
H258        H  0.63854303  0.25620911  0.95113940     0.06700
H259        H  0.53551900  0.28313121  0.02711982     0.06600
N260        N  0.54259984  0.20061861  0.98727917    -0.02400
C261        C  0.50961253  0.16317554  0.94432563    -0.00400
C262        C  0.45424259  0.11608054  0.94699107    -0.23300
C263        C  0.45334727  0.12304117  0.99333120    -0.23500
C264        C  0.50831997  0.17454718  0.01782087    -0.00500
H265        H  0.42139095  0.07718429  0.91946585     0.13300
H266        H  0.41920281  0.09006210  0.00838901     0.13300
O267        O  0.49154353  0.93781903  0.75164212    -0.73900
O268        O  0.53535776  0.04718306  0.66993131    -0.74000
O269        O  0.54627384  0.05198567  0.76300290    -0.74000
O270        O  0.48143587  0.92951065  0.65392915    -0.74100
O271        O  0.39354530  0.91168539  0.64322269    -0.74000
O272        O  0.45695960  0.03231866  0.75397222    -0.74000
O273        O  0.44620005  0.02606067  0.66097788    -0.74000
O274        O  0.40208136  0.91749995  0.73971797    -0.74000
Ni275      Ni  0.51654144  0.99146440  0.70943941     1.25400
Ni276      Ni  0.42141384  0.97063138  0.69896311     1.25400
C277        C  0.44157618  0.91488016  0.76307822     0.88200
C278        C  0.49878377  0.05782859  0.65502157     0.88200
C279        C  0.51191544  0.06170801  0.77660139     0.88200
C280        C  0.42825968  0.90290253  0.62829489     0.88400
O281        O  0.98848426  0.39564251  0.63247624    -0.73900
O282        O  0.87718628  0.35907806  0.70926077    -0.74000
O283        O  0.87546638  0.36159847  0.61453611    -0.74000
O284        O  0.98793862  0.39122055  0.72444029    -0.74100
O285        O  0.02255547  0.48398514  0.74282771    -0.74000
O286        O  0.91458032  0.45520719  0.62863285    -0.74000
O287        O  0.91082171  0.45131298  0.72272142    -0.74000
O288        O  0.02654602  0.48939345  0.65134505    -0.74000
Ni289      Ni  0.93062692  0.37347843  0.66937527     1.25400
Ni290      Ni  0.96950571  0.47317451  0.68684869     1.25400
C291        C  0.02629961  0.44890178  0.62990067     0.88200
C292        C  0.87894767  0.40039924  0.73164999     0.88200
C293        C  0.87921230  0.40410387  0.60114859     0.88200
C294        C  0.02205367  0.44161621  0.75248173     0.88400
N295        N  0.40507856  0.62655698  0.00506123    -0.03000
C296        C  0.44794397  0.65488680  0.98063708    -0.00400
C297        C  0.50103470  0.70185686  0.01133627    -0.23300
C298        C  0.49379013  0.69553231  0.55617931    -0.23500
C299        C  0.43541042  0.64706037  0.55135221    -0.00500
H300        H  0.54385708  0.72882319  0.00278531     0.13300
H301        H  0.52999942  0.71757881  0.58787945     0.13300
C302        C  0.24102229  0.56057529  0.47373684     0.03600
C303        C  0.24476561  0.60650492  0.95708887    -0.12500
C304        C  0.30080134  0.66029261  0.96042771     0.01100
C305        C  0.35295818  0.66797938  0.98122859    -0.11100
C306        C  0.35053981  0.62062333  0.49299677     0.03600
C307        C  0.29446496  0.56818148  0.49124766    -0.10500
H308        H  0.20441928  0.59909594  0.93908816     0.09200
H309        H  0.39600931  0.70851085  0.98241160     0.06700
H310        H  0.29171236  0.53211451  0.50149688     0.06600
N311        N  0.18370307  0.50395619  0.46719650    -0.03000
C312        C  0.17109255  0.47597406  0.50338218    -0.00400
C313        C  0.15244169  0.41979109  0.48830190    -0.23300
C314        C  0.14777747  0.41144110  0.94047624    -0.23500
C315        C  0.16225811  0.46207420  0.92785292    -0.00500
H316        H  0.13293162  0.38519357  0.50740422     0.13300
H317        H  0.12401383  0.36933174  0.91668672     0.13300
N318        N  0.34825897  0.75912847  0.93840841    -0.03000
C319        C  0.34531220  0.77261197  0.89481413    -0.00400
C320        C  0.29974247  0.72326212  0.86068471    -0.23300
C321        C  0.27451039  0.67755165  0.88241838    -0.23500
C322        C  0.30533662  0.69981431  0.92946850    -0.00500
H323        H  0.28919180  0.72022342  0.82299620     0.13300
H324        H  0.24079964  0.63205422  0.86488739     0.13300
C325        C  0.12110855  0.48623788  0.80795921    -0.01400
C326        C  0.05833806  0.44910158  0.79783174     0.08300
C327        C  0.02942208  0.41560597  0.83022186    -0.01500
C328        C  0.06310122  0.42268110  0.87400286    -0.01500
C329        C  0.12625749  0.45770913  0.88315378     0.08400
C330        C  0.15419388  0.48637712  0.84861032    -0.01700
Br331      Br  0.23492847  0.51619272  0.85292213    -0.00200
Br332      Br  0.16185490  0.53532628  0.76581524    -0.00300
Br333      Br  0.02087949  0.38289116  0.92013906    -0.00300
Br334      Br  0.94340554  0.35881693  0.81470192    -0.00200
C335        C  0.11354897  0.45620891  0.61272048    -0.01400
C336        C  0.06966755  0.46425064  0.60093406     0.08300
C337        C  0.06804330  0.48850618  0.56183905    -0.01500
C338        C  0.10704307  0.50043171  0.53243347    -0.01500
C339        C  0.14774720  0.48732228  0.54184339     0.08400
C340        C  0.15373067  0.46970255  0.58424741    -0.01700
Br341      Br  0.21718151  0.46354600  0.60290651    -0.00200
Br342      Br  0.11737305  0.42459948  0.66687615    -0.00300
Br343      Br  0.10106653  0.53251348  0.47901010    -0.00300
Br344      Br  0.00802958  0.50005073  0.54582489    -0.00200
C345        C  0.43055751  0.83803892  0.00799154    -0.01400
C346        C  0.36934368  0.79751495  0.98480615     0.08300
C347        C  0.32755198  0.79187458  0.50892045    -0.01500
C348        C  0.34615384  0.82246459  0.55642934    -0.01500
C349        C  0.40787110  0.86433050  0.57964353     0.08400
C350        C  0.44984497  0.87219557  0.55384054    -0.01700
Br351      Br  0.53490557  0.93266532  0.57894863    -0.00200
Br352      Br  0.48896303  0.84565171  0.97751818    -0.00300
Br353      Br  0.28493984  0.80301241  0.58928573    -0.00300
Br354      Br  0.24403193  0.74507737  0.97614224    -0.00200
C355        C  0.44671805  0.85341636  0.81695946    -0.01400
C356        C  0.42960451  0.88836710  0.80565474     0.08300
C357        C  0.40028178  0.89829325  0.83591178    -0.01500
C358        C  0.37964014  0.86606827  0.87120265    -0.01500
C359        C  0.39037568  0.82566903  0.87861690     0.08400
C360        C  0.42755436  0.82277265  0.85324744    -0.01700
Br361      Br  0.44824709  0.77230377  0.86445221    -0.00200
Br362      Br  0.49236809  0.84312608  0.78063808    -0.00300
Br363      Br  0.33189588  0.87324442  0.90688044    -0.00300
Br364      Br  0.38948815  0.95737857  0.83086431    -0.00200
C365        C  0.55333707  0.09574389  0.86375288    -0.01400
C366        C  0.53417194  0.10459725  0.82067393     0.08300
C367        C  0.52535922  0.14731977  0.82098723    -0.01500
C368        C  0.52450444  0.17307133  0.86339247    -0.01500
C369        C  0.53423160  0.15718979  0.90549817     0.08400
C370        C  0.55273919  0.12165602  0.90624959    -0.01700
Br371      Br  0.56789879  0.10068954  0.96411213    -0.00200
Br372      Br  0.57333020  0.04283371  0.86453793    -0.00300
Br373      Br  0.50340911  0.22469607  0.86289791    -0.00300
Br374      Br  0.51335054  0.16940346  0.76316923    -0.00200
C375        C  0.48860688  0.16469380  0.59633901    -0.01400
C376        C  0.53039339  0.18161224  0.06912921     0.08300
C377        C  0.57591679  0.17597517  0.58403959    -0.01500
C378        C  0.56818662  0.13797004  0.61418069    -0.01500
C379        C  0.51567493  0.10734442  0.63121357     0.08400
C380        C  0.47854442  0.12536534  0.62518631    -0.01700
Br381      Br  0.41043680  0.09555686  0.65231861    -0.00200
Br382      Br  0.43685342  0.18715603  0.08467754    -0.00300
Br383      Br  0.62890929  0.12736848  0.62898019    -0.00300
Br384      Br  0.64851046  0.22081990  0.56325050    -0.00200
C385        C  0.87552623  0.43445448  0.81339395    -0.01400
C386        C  0.84755144  0.39069235  0.77091593     0.08300
C387        C  0.79172919  0.33689142  0.76815235    -0.01500
C388        C  0.76329647  0.32850527  0.80560659    -0.01500
C389        C  0.78826753  0.37449811  0.84560208     0.08400
C390        C  0.84525916  0.42702535  0.84950165    -0.01700
Br391      Br  0.88068772  0.49093488  0.90265964    -0.00200
Br392      Br  0.95680579  0.50446122  0.82419592    -0.00300
Br393      Br  0.68701073  0.25427375  0.80048728    -0.00300
Br394      Br  0.75073897  0.27566194  0.71148503    -0.00200
C395        C  0.82684200  0.34854118  0.51450498    -0.01400
C396        C  0.84477991  0.39470512  0.55232867     0.08300
C397        C  0.83259236  0.43388927  0.54186888    -0.01500
C398        C  0.80548730  0.42812441  0.49520006    -0.01500
C399        C  0.78337387  0.37956504  0.45897114     0.08400
C400        C  0.79343542  0.33943604  0.46922481    -0.01700
Br401      Br  0.75755019  0.26974403  0.42185570    -0.00200
Br402      Br  0.84942932  0.29824656  0.52206421    -0.00300
Br403      Br  0.79819452  0.48740043  0.98099438    -0.00300
Br404      Br  0.84713162  0.49299534  0.59120187    -0.00200
C405        C  0.47168471  0.36299011  0.62063773    -0.01400
C406        C  0.51540557  0.40812086  0.66048953     0.08300
C407        C  0.57283011  0.42165867  0.67065188    -0.01500
C408        C  0.58964034  0.40152668  0.63573072    -0.01500
C409        C  0.55076720  0.37160098  0.59061264     0.08400
C410        C  0.48947684  0.34233799  0.58709113    -0.01700
Br411      Br  0.43268618  0.28715247  0.52952755    -0.00200
Br412      Br  0.38922326  0.33294838  0.60829487    -0.00300
Br413      Br  0.66979793  0.42612477  0.64436242    -0.00300
Br414      Br  0.62804460  0.46641367  0.73170924    -0.00200
C415        C  0.61081487  0.48403050  0.87734900    -0.01400
C416        C  0.55159079  0.44302054  0.84832951     0.08300
C417        C  0.51405510  0.38785824  0.85934756    -0.01500
C418        C  0.52880903  0.38025806  0.90435312    -0.01500
C419        C  0.58239600  0.42637495  0.93706121     0.08400
C420        C  0.62530797  0.47611024  0.92225247    -0.01700
Br421      Br  0.70126601  0.53686525  0.96622393    -0.00200
Br422      Br  0.67295246  0.55243280  0.85851140    -0.00300
Br423      Br  0.47081485  0.31040265  0.92314273    -0.00300
Br424      Br  0.44222371  0.32231815  0.81390801    -0.00200
C425        C  0.41754984  0.61079882  0.89289667    -0.01400
C426        C  0.45055807  0.62287596  0.93902602     0.08300
C427        C  0.48831161  0.60586764  0.94507380    -0.01500
C428        C  0.49468376  0.58053948  0.90545966    -0.01500
C429        C  0.46177605  0.56930495  0.85968913     0.08400
C430        C  0.42087889  0.58170085  0.85379973    -0.01700
Br431      Br  0.36900837  0.55852785  0.79216859    -0.00200
Br432      Br  0.37206554  0.63865195  0.88171357    -0.00300
Br433      Br  0.54629111  0.55794666  0.91406690    -0.00300
Br434      Br  0.53137811  0.61490113  0.50699806    -0.00200
C435        C  0.39738701  0.55087990  0.57486305    -0.01400
C436        C  0.41995202  0.61017637  0.58719263     0.08300
C437        C  0.43879636  0.63748435  0.63558265    -0.01500
C438        C  0.44452591  0.60988714  0.67060600    -0.01500
C439        C  0.42584472  0.55237876  0.65797148     0.08400
C440        C  0.39719979  0.52145162  0.61056442    -0.01700
Br441      Br  0.36251766  0.43992678  0.59378367    -0.00200
Br442      Br  0.37518658  0.51076689  0.01000840    -0.00300
Br443      Br  0.48076877  0.65243911  0.73578909    -0.00300
Br444      Br  0.45972240  0.71421015  0.65405368    -0.00200
loop_ 
_geom_bond_atom_site_label_1 
_geom_bond_atom_site_label_2 
_geom_bond_distance 
_geom_bond_site_symmetry_2 
_ccdc_geom_bond_type 
O1           Ni9   1.914       .  S
O1           C11   1.278       .  A
O2           Ni9   1.913       .  S
O2           C12   1.279       .  A
O3           Ni9   1.921       .  S
O3           C13   1.283       .  A
O4           Ni9   1.937       .  S
O4           C14   1.285       .  A
O5          Ni10   1.905       .  S
O5           C14   1.278       .  A
O6          Ni10   1.890       .  S
O6           C13   1.273       .  A
O7          Ni10   1.925       .  S
O7           C12   1.284       .  A
O8          Ni10   1.928       .  S
O8           C11   1.284       .  A
Ni9         Ni10   2.383       .  S
C11         C207   1.478       .  S
C12         C184   1.490       .  S
C13         C194   1.489       .  S
C14         C217   1.485       .  S
N15          C19   1.360       .  A
N15          C16   1.375       .  A
N15         C399   1.451       .  S
C16         C167   1.501       .  S
C16          C17   1.386       .  A
C17          C18   1.367       .  A
C17          H20   1.083       .  S
C18          C19   1.377       .  A
C18          H21   1.082       .  S
C19          C31   1.481       .  S
N22          C23   1.360       .  A
N22         C248   1.362   1_554  A
N22          C29   1.454       .  S
C23         C187   1.471       .  S
C23          C24   1.386       .  A
C24         C247   1.358       .  A
C24          H27   1.082       .  S
C25          C26   1.376       .  A
C25         C246   1.358       .  A
C25          H28   1.082       .  S
C26         C197   1.471       .  S
C26         N244   1.363       .  A
C29          C30   1.404   1_554  A
C29         C256   1.410       .  A
C30         C253   1.395       .  A
C30          H35   1.079       .  S
C31          C32   1.398       .  A
C31         C252   1.395       .  A
C32          C33   1.409       .  A
C32          H36   1.082       .  S
C33          N38   1.448       .  S
C33          C34   1.420       .  A
C34         C251   1.410       .  A
C34          H37   1.079       .  S
N38          C42   1.359       .  A
N38          C39   1.359       .  A
C39         C147   1.471       .  S
C39          C40   1.376       .  A
C40          C41   1.361       .  A
C40          H43   1.082       .  S
C41          C42   1.389       .  A
C41          H44   1.082       .  S
C42         C154   1.487       .  S
O45         Ni53   1.944       .  S
O45          C55   1.288       .  A
O46         Ni53   1.939   1_545  S
O46          C56   1.286       .  A
O47         Ni53   1.903   1_545  S
O47          C57   1.275       .  A
O48         Ni53   1.936       .  S
O48          C58   1.283       .  A
O49         Ni54   1.933       .  S
O49          C58   1.284       .  A
O50         Ni54   1.920   1_545  S
O50          C57   1.284       .  A
O51         Ni54   1.887   1_545  S
O51          C56   1.272       .  A
O52         Ni54   1.911       .  S
O52          C55   1.278       .  A
Ni53        Ni54   2.376       .  S
C55         C134   1.504       .  S
C56         C157   1.504       .  S
C57         C144   1.468       .  S
C58         C127   1.523       .  S
O59         Ni67   1.930       .  S
O59          C69   1.284   1_655  A
O60         Ni67   1.934       .  S
O60          C70   1.285       .  A
O61         Ni67   1.924       .  S
O61          C71   1.280       .  A
O62         Ni67   1.905       .  S
O62          C72   1.278   1_655  A
O63         Ni68   1.924   1_455  S
O63          C72   1.282       .  A
O64         Ni68   1.932       .  S
O64          C71   1.285       .  A
O65         Ni68   1.927       .  S
O65          C70   1.283       .  A
O66         Ni68   1.911   1_455  S
O66          C69   1.279       .  A
Ni67        Ni68   2.381       .  S
C69         C114   1.479       .  S
C70         C164   1.509       .  S
C71         C174   1.513       .  S
C72         C104   1.471       .  S
N73          C74   1.368       .  A
N73         C299   1.355       .  A
N73         C306   1.452       .  S
C74         C204   1.503       .  S
C74          C75   1.382       .  A
C75         C298   1.369       .  A
C75          H78   1.083       .  S
C76          C77   1.385       .  A
C76         C297   1.369       .  A
C76          H79   1.083       .  S
C77         C214   1.495       .  S
C77         N295   1.355       .  A
C80          N89   1.452       .  S
C80          C85   1.414       .  A
C80         C303   1.407       .  A
C81          C82   1.414       .  A
C81         C302   1.407       .  A
C81          H86   1.079       .  S
C82         C100   1.488       .  S
C82          C83   1.401       .  A
C83         C306   1.410       .  A
C83          H87   1.085       .  S
C84         N295   1.452   1_556  S
C84          C85   1.408       .  A
C84         C305   1.409       .  A
C85          H88   1.079   1_556  S
N89          C90   1.358   1_556  A
N89         C315   1.360       .  A
C90         C117   1.496       .  S
C90          C91   1.386   1_554  A
C91         C314   1.367       .  A
C91          H94   1.083   1_556  S
C92          C93   1.380       .  A
C92         C313   1.367       .  A
C92          H95   1.082       .  S
C93         C107   1.486       .  S
C93         N311   1.360       .  A
N96         C100   1.371       .  A
N96          C97   1.376       .  A
N96         C124   1.465       .  S
C97         C137   1.498       .  S
C97          C98   1.382       .  A
C98          C99   1.363       .  A
C98         H101   1.082       .  S
C99         C100   1.380       .  A
C99         H102   1.082       .  S
C103        C104   1.407       .  A
C103        C108   1.406       .  A
C103       Br110   1.927       .  S
C104        C105   1.410       .  A
C105        C106   1.404       .  A
C105       Br112   1.933   1_455  S
C106        C107   1.419       .  A
C106       Br111   1.937       .  S
C107        C108   1.403       .  A
C108       Br109   1.907       .  S
C113        C114   1.408       .  A
C113        C118   1.408       .  A
C113       Br120   1.927       .  S
C114        C115   1.409       .  A
C115        C116   1.411       .  A
C115       Br122   1.936       .  S
C116        C117   1.423       .  A
C116       Br121   1.932   1_554  S
C117        C118   1.412       .  A
C118       Br119   1.932       .  S
C123        C124   1.410       .  A
C123        C350   1.422       .  A
C123       Br130   1.918       .  S
C124        C347   1.417       .  A
C125        C126   1.418       .  A
C125        C346   1.417   1_554  A
C125       Br354   1.934   1_554  S
C126        C127   1.423       .  A
C126       Br131   1.935       .  S
C127        C128   1.428       .  A
C128        C345   1.421       .  A
C128       Br129   1.937       .  S
Br132       C347   1.934       .  S
C133        C134   1.408       .  A
C133        C138   1.413       .  A
C133       Br140   1.933       .  S
C134        C135   1.425       .  A
C135        C136   1.416       .  A
C135       Br142   1.931       .  S
C136        C137   1.405       .  A
C136       Br141   1.928       .  S
C137        C138   1.420       .  A
C138       Br139   1.915       .  S
C143        C144   1.408       .  A
C143        C148   1.403       .  A
C143       Br150   1.933       .  S
C144        C145   1.405       .  A
C145        C146   1.402       .  A
C145       Br152   1.921       .  S
C146        C147   1.403       .  A
C146       Br151   1.921       .  S
C147        C148   1.412       .  A
C148       Br149   1.930       .  S
C153        C158   1.403       .  A
C153        C376   1.399       .  A
C153       Br382   1.928       .  S
C154        C375   1.399       .  A
C154        C377   1.409       .  A
C155        C156   1.415       .  A
C155        C376   1.409       .  A
C155       Br162   1.927       .  S
C156        C157   1.423       .  A
C156       Br161   1.932       .  S
C157        C158   1.432       .  A
C158       Br159   1.942       .  S
Br160       C375   1.928       .  S
C163        C164   1.423       .  A
C163        C168   1.417       .  A
C163       Br170   1.934       .  S
C164        C165   1.415       .  A
C165        C166   1.416       .  A
C165       Br172   1.931       .  S
C166        C167   1.419       .  A
C166       Br171   1.934       .  S
C167        C168   1.409       .  A
C168       Br169   1.922       .  S
C173        C174   1.429       .  A
C173        C178   1.417   1_554  A
C173       Br180   1.933       .  S
C174        C175   1.420       .  A
C175        C176   1.412   1_554  A
C175       Br182   1.935       .  S
C176        C177   1.413       .  A
C176       Br403   1.931       .  S
C177        N237   1.451       .  S
C177        C178   1.404       .  A
C178       Br179   1.924       .  S
Br181       C398   1.931       .  S
C183        C184   1.416       .  A
C183        C188   1.409       .  A
C183       Br190   1.929       .  S
C184        C185   1.419       .  A
C185        C186   1.410       .  A
C185       Br192   1.926       .  S
C186        C187   1.400       .  A
C186       Br191   1.923       .  S
C187        C188   1.408       .  A
C188       Br189   1.919       .  S
C193        C194   1.423       .  A
C193        C198   1.402       .  A
C193       Br200   1.936       .  S
C194        C195   1.414       .  A
C195        C196   1.402       .  A
C195       Br202   1.935       .  S
C196        C197   1.406       .  A
C196       Br201   1.921       .  S
C197        C198   1.404       .  A
C198       Br199   1.934       .  S
C203        C204   1.411       .  A
C203        C208   1.409       .  A
C203       Br210   1.903       .  S
C204        C205   1.425       .  A
C205        C206   1.409       .  A
C205       Br434   1.937       .  S
C206        C207   1.406       .  A
C206       Br211   1.933       .  S
C207        C208   1.406       .  A
C208       Br209   1.931       .  S
Br212       C427   1.937   1_554  S
C213        C214   1.424       .  A
C213        C218   1.410       .  A
C213       Br442   1.935       .  S
C214        C215   1.413       .  A
C215        C216   1.408       .  A
C215       Br222   1.934       .  S
C216        C217   1.413       .  A
C216       Br221   1.931       .  S
C217        C218   1.406       .  A
C218       Br219   1.929       .  S
Br220       C435   1.935       .  S
O223       Ni231   1.913       .  S
O223        C233   1.278       .  A
O224       Ni231   1.913       .  S
O224        C234   1.279       .  A
O225       Ni231   1.921       .  S
O225        C235   1.283       .  A
O226       Ni231   1.936       .  S
O226        C236   1.285       .  A
O227       Ni232   1.905       .  S
O227        C236   1.278       .  A
O228       Ni232   1.890       .  S
O228        C235   1.273       .  A
O229       Ni232   1.925       .  S
O229        C234   1.284       .  A
O230       Ni232   1.928       .  S
O230        C233   1.284       .  A
Ni231      Ni232   2.383       .  S
C233        C429   1.479       .  S
C234        C406   1.491       .  S
C235        C416   1.489       .  S
C236        C439   1.484       .  S
N237        C241   1.360       .  A
N237        C238   1.375       .  A
C238        C389   1.501       .  S
C238        C239   1.386       .  A
C239        C240   1.367       .  A
C239        H242   1.083       .  S
C240        C241   1.377       .  A
C240        H243   1.082       .  S
C241        C253   1.480       .  S
N244        C245   1.360       .  A
N244        C251   1.454       .  S
C245        C409   1.471       .  S
C245        C246   1.386       .  A
C246        H249   1.082       .  S
C247        C248   1.376   1_554  A
C247        H250   1.082   1_554  S
C248        C419   1.471       .  S
C251        C252   1.404       .  A
C252        H257   1.079       .  S
C253        C254   1.398       .  A
C254        C255   1.409       .  A
C254        H258   1.082       .  S
C255        N260   1.448       .  S
C255        C256   1.420   1_556  A
C256        H259   1.079       .  S
N260        C264   1.359   1_556  A
N260        C261   1.360       .  A
C261        C369   1.471       .  S
C261        C262   1.376       .  A
C262        C263   1.361       .  A
C262        H265   1.082       .  S
C263        C264   1.388   1_556  A
C263        H266   1.082   1_556  S
C264        C376   1.488       .  S
O267       Ni275   1.944       .  S
O267        C277   1.288       .  A
O268       Ni275   1.939   1_545  S
O268        C278   1.286       .  A
O269       Ni275   1.903   1_545  S
O269        C279   1.275       .  A
O270       Ni275   1.937       .  S
O270        C280   1.283       .  A
O271       Ni276   1.933       .  S
O271        C280   1.284       .  A
O272       Ni276   1.921   1_545  S
O272        C279   1.284       .  A
O273       Ni276   1.887   1_545  S
O273        C278   1.272       .  A
O274       Ni276   1.910       .  S
O274        C277   1.278       .  A
Ni275      Ni276   2.375       .  S
C277        C356   1.504       .  S
C278        C379   1.503       .  S
C279        C366   1.468       .  S
C280        C349   1.524       .  S
O281       Ni289   1.930       .  S
O281        C291   1.284   1_655  A
O282       Ni289   1.934       .  S
O282        C292   1.285       .  A
O283       Ni289   1.924       .  S
O283        C293   1.281       .  A
O284       Ni289   1.905       .  S
O284        C294   1.278   1_655  A
O285       Ni290   1.924   1_455  S
O285        C294   1.282       .  A
O286       Ni290   1.932       .  S
O286        C293   1.285       .  A
O287       Ni290   1.927       .  S
O287        C292   1.283       .  A
O288       Ni290   1.911   1_455  S
O288        C291   1.279       .  A
Ni289      Ni290   2.381       .  S
C291        C336   1.479       .  S
C292        C386   1.509       .  S
C293        C396   1.513       .  S
C294        C326   1.472       .  S
N295        C296   1.368   1_554  A
C296        C426   1.503       .  S
C296        C297   1.382   1_556  A
C297        H300   1.083       .  S
C298        C299   1.385       .  A
C298        H301   1.083       .  S
C299        C436   1.495       .  S
C302        N311   1.452       .  S
C302        C307   1.414       .  A
C303        C304   1.414       .  A
C303        H308   1.079       .  S
C304        C322   1.488       .  S
C304        C305   1.401       .  A
C305        H309   1.085       .  S
C306        C307   1.408       .  A
C307        H310   1.079       .  S
N311        C312   1.358       .  A
C312        C339   1.496       .  S
C312        C313   1.386       .  A
C313        H316   1.083       .  S
C314        C315   1.380       .  A
C314        H317   1.082       .  S
C315        C329   1.487       .  S
N318        C322   1.371       .  A
N318        C319   1.376       .  A
N318        C346   1.465       .  S
C319        C359   1.497       .  S
C319        C320   1.381       .  A
C320        C321   1.362       .  A
C320        H323   1.082       .  S
C321        C322   1.380       .  A
C321        H324   1.082       .  S
C325        C326   1.407       .  A
C325        C330   1.406       .  A
C325       Br332   1.927       .  S
C326        C327   1.410       .  A
C327        C328   1.404       .  A
C327       Br334   1.933   1_455  S
C328        C329   1.419       .  A
C328       Br333   1.937       .  S
C329        C330   1.403       .  A
C330       Br331   1.907       .  S
C335        C336   1.408       .  A
C335        C340   1.408       .  A
C335       Br342   1.927       .  S
C336        C337   1.409       .  A
C337        C338   1.411       .  A
C337       Br344   1.936       .  S
C338        C339   1.423       .  A
C338       Br343   1.931       .  S
C339        C340   1.412       .  A
C340       Br341   1.932       .  S
C345        C346   1.410   1_554  A
C345       Br352   1.918   1_554  S
C347        C348   1.418       .  A
C348        C349   1.423       .  A
C348       Br353   1.935       .  S
C349        C350   1.429       .  A
C350       Br351   1.936       .  S
C355        C356   1.408       .  A
C355        C360   1.413       .  A
C355       Br362   1.933       .  S
C356        C357   1.425       .  A
C357        C358   1.416       .  A
C357       Br364   1.931       .  S
C358        C359   1.405       .  A
C358       Br363   1.928       .  S
C359        C360   1.420       .  A
C360       Br361   1.915       .  S
C365        C366   1.408       .  A
C365        C370   1.403       .  A
C365       Br372   1.933       .  S
C366        C367   1.405       .  A
C367        C368   1.402       .  A
C367       Br374   1.921       .  S
C368        C369   1.403       .  A
C368       Br373   1.920       .  S
C369        C370   1.412       .  A
C370       Br371   1.929       .  S
C375        C380   1.403       .  A
C377        C378   1.415       .  A
C377       Br384   1.927       .  S
C378        C379   1.423       .  A
C378       Br383   1.932       .  S
C379        C380   1.432       .  A
C380       Br381   1.942       .  S
C385        C386   1.423       .  A
C385        C390   1.417       .  A
C385       Br392   1.934       .  S
C386        C387   1.415       .  A
C387        C388   1.416       .  A
C387       Br394   1.931       .  S
C388        C389   1.419       .  A
C388       Br393   1.934       .  S
C389        C390   1.409       .  A
C390       Br391   1.922       .  S
C395        C396   1.429       .  A
C395        C400   1.417       .  A
C395       Br402   1.933       .  S
C396        C397   1.420       .  A
C397        C398   1.412       .  A
C397       Br404   1.935       .  S
C398        C399   1.413       .  A
C399        C400   1.404       .  A
C400       Br401   1.924       .  S
C405        C406   1.416       .  A
C405        C410   1.409       .  A
C405       Br412   1.929       .  S
C406        C407   1.419       .  A
C407        C408   1.410       .  A
C407       Br414   1.926       .  S
C408        C409   1.399       .  A
C408       Br413   1.923       .  S
C409        C410   1.408       .  A
C410       Br411   1.920       .  S
C415        C416   1.423       .  A
C415        C420   1.402       .  A
C415       Br422   1.936       .  S
C416        C417   1.414       .  A
C417        C418   1.402       .  A
C417       Br424   1.935       .  S
C418        C419   1.406       .  A
C418       Br423   1.921       .  S
C419        C420   1.403       .  A
C420       Br421   1.934       .  S
C425        C426   1.410       .  A
C425        C430   1.410       .  A
C425       Br432   1.903       .  S
C426        C427   1.425       .  A
C427        C428   1.410       .  A
C428        C429   1.406       .  A
C428       Br433   1.933       .  S
C429        C430   1.406       .  A
C430       Br431   1.931       .  S
C435        C436   1.424       .  A
C435        C440   1.410       .  A
C436        C437   1.413       .  A
C437        C438   1.408       .  A
C437       Br444   1.934       .  S
C438        C439   1.413       .  A
C438       Br443   1.931       .  S
C439        C440   1.406       .  A
C440       Br441   1.929       .  S
