geometry optimzed in LAMMPS
_audit_creation_date              2020-11-30 
_audit_creation_method            'lammps2cif' 
_symmetry_space_group_name_H-M    'P1' 
_symmetry_Int_Tables_number       1 
_symmetry_cell_setting            triclinic 
loop_ 
_symmetry_equiv_pos_as_xyz 
  x,y,z 
_cell_length_a                    40.50815643629217 
_cell_length_b                    40.4203179860992 
_cell_length_c                    40.35870844513575 
_cell_angle_alpha                 86.1706579004968 
_cell_angle_beta                  86.49549950076157 
_cell_angle_gamma                 93.99595209445579 
loop_ 
_atom_site_label 
_atom_site_type_symbol 
_atom_site_fract_x 
_atom_site_fract_y 
_atom_site_fract_z 
_atom_site_charge 
C1          C  0.10293675  0.27748809  0.51821973     0.03390
C2          C  0.13608166  0.27381917  0.02530277    -0.12760
C3          C  0.14830689  0.24203908  0.02879113     0.00890
C4          C  0.12669167  0.21393890  0.02507109    -0.11290
C5          C  0.09330425  0.21735567  0.51870910     0.03380
C6          C  0.08189374  0.24920740  0.51445618    -0.10710
H7          H  0.15196988  0.29569821  0.02927652     0.08970
H8          H  0.13508335  0.18928463  0.02974362     0.06500
H9          H  0.05596059  0.25189435  0.51045580     0.06350
C10         C  0.32170600  0.19123536  0.09867182     0.03390
C11         C  0.29023073  0.19373822  0.08612308    -0.12760
C12         C  0.27770160  0.22521592  0.08040521     0.00890
C13         C  0.29777013  0.25386753  0.08618053    -0.11290
C14         C  0.32886533  0.25150933  0.09948591     0.03380
C15         C  0.33985931  0.22000900  0.10676195    -0.10710
H16         H  0.27615873  0.17150033  0.07986358     0.08970
H17         H  0.28965073  0.27809678  0.07889724     0.06500
H18         H  0.36388373  0.21778920  0.11681151     0.06350
C19         C  0.17051207  0.44409815  0.20491669     0.03390
C20         C  0.17383518  0.45620861  0.23642528    -0.12760
C21         C  0.20546795  0.46174597  0.24861875     0.00890
C22         C  0.23359991  0.45510984  0.22861415    -0.11290
C23         C  0.23048155  0.44344509  0.19677370     0.03380
C24         C  0.19872602  0.43678600  0.18583424    -0.10710
H25         H  0.15206371  0.46322114  0.25046680     0.08970
H26         H  0.25804390  0.46009802  0.23741346     0.06500
H27         H  0.19585960  0.42795980  0.16132720     0.06350
C28         C  0.25429328  0.02688065  0.42398978     0.03390
C29         C  0.25140759  0.01802024  0.39112357    -0.12760
C30         C  0.21990674  0.01419559  0.37814207     0.00890
C31         C  0.19160810  0.01990424  0.39839351    -0.11290
C32         C  0.19433849  0.02812696  0.43141288     0.03380
C33         C  0.22580862  0.03309766  0.44333269    -0.10710
H34         H  0.27321899  0.01171893  0.37666892     0.08970
H35         H  0.16723863  0.01620445  0.38901238     0.06500
H36         H  0.22807932  0.03948836  0.46880622     0.06350
C37         C  0.01348231  0.12491119  0.27011127     0.03390
C38         C  0.00648035  0.15826928  0.27277757    -0.12760
C39         C  0.00340091  0.17133681  0.30414541     0.00890
C40         C  0.00803273  0.15073424  0.33261093    -0.11290
C41         C  0.01343306  0.11698201  0.33036207     0.03380
C42         C  0.01729385  0.10450503  0.29892995    -0.10710
H43         H  0.00090913  0.17312979  0.25074562     0.08970
H44         H  0.00461449  0.16026942  0.35697061     0.06500
H45         H  0.01953727  0.07811584  0.29701551     0.06350
C46         C  0.43062180  0.34093123  0.35754129     0.03390
C47         C  0.42409240  0.36122906  0.32949347    -0.12760
C48         C  0.43100127  0.35136610  0.29730171     0.00890
C49         C  0.44318943  0.31999999  0.29336502    -0.11290
C50         C  0.44890853  0.29881585  0.32112014     0.03380
C51         C  0.44255069  0.30954809  0.35318121    -0.10710
H52         H  0.41499202  0.38544945  0.33274271     0.08970
H53         H  0.44887202  0.31228007  0.26859277     0.06500
H54         H  0.44796211  0.29396341  0.37476823     0.06350
O55         O  0.02700204  0.41537379  0.01390633    -0.79870
O56         O  0.42735008  0.46217626  0.16958332    -0.81430
O57         O  0.03267356  0.43450829  0.12815097    -0.78450
O58         O  0.44136353  0.37855443  0.10059941    -0.76830
O59         O  0.39701533  0.39301964  0.07160983    -0.78620
O60         O  0.05342688  0.48815164  0.11586718    -0.79550
O61         O  0.45680584  0.41833196  0.15502450    -0.80880
O62         O  0.01692052  0.39331275  0.06755209    -0.81170
Eu63       Eu  0.48101474  0.42853627  0.09830447     2.39200
O64         O  0.42824548  0.44865393  0.09908252    -0.88680
O65         O  0.01651373  0.46489548  0.06194451    -0.92280
C66         C  0.03068716  0.39332219  0.03787613     1.02410
C67         C  0.43852020  0.43331982  0.17554396     1.02230
C68         C  0.05482916  0.45887119  0.13002768     1.02170
C69         C  0.41213778  0.37264912  0.09003358     1.00030
H70         H  0.48996302  0.48162715  0.14032957     0.29780
O71         O  0.48203385  0.48220545  0.11822674    -1.01070
H72         H  0.46030976  0.40719276  0.03734941     0.29810
O73         O  0.46097773  0.42944912  0.04474516    -1.03610
O74         O  0.39781549  0.05260644  0.11419234    -0.80830
O75         O  0.49682805  0.50478194  0.45765745    -0.80370
O76         O  0.01235611  0.04831809  0.13287591    -0.78810
O77         O  0.35788618  0.44640757  0.08582394    -0.82150
O78         O  0.41255674  0.41794355  0.99568412    -0.80000
O79         O  0.06689881  0.02025683  0.04238511    -0.78650
O80         O  0.48222680  0.08883036  0.02795786    -0.80170
O81         O  0.39265838  0.03298946  0.99965901    -0.82100
O82         O  0.02614191  0.07610295  0.05848937    -0.78840
O83         O  0.37128540  0.47937499  0.01129704    -0.81510
O84         O  0.45931008  0.03701095  0.15527931    -0.77250
O85         O  0.05310148  0.49014337  0.99839115    -0.77280
O86         O  0.46602918  0.42893490  0.47391649    -0.76920
O87         O  0.37228266  0.47556825  0.13021848    -0.80420
O88         O  0.40973376  0.07405968  0.06058959    -0.79850
O89         O  0.46546170  0.04694094  0.47238197    -0.78170
Eu90       Eu  0.42832250  0.50139163  0.11964031     2.39770
Eu91       Eu  0.49631396  0.46609279  0.00834784     2.39570
Eu92       Eu  0.01712182  0.01856239  0.08142639     2.38400
Eu93       Eu  0.40741553  0.44903005  0.04635295     2.39880
Eu94       Eu  0.44386019  0.03818876  0.02978649     2.39790
O95         O  0.44252880  0.48492245  0.00944022    -0.92590
O96         O  0.46365544  0.03790026  0.08339190    -0.91480
C97         C  0.39590732  0.07499360  0.09002788     1.02580
C98         C  0.48381861  0.03271319  0.45133638     1.01300
C99         C  0.48879927  0.05119059  0.15538562     1.00690
C100        C  0.35199779  0.45695302  0.11500263     1.02700
C101        C  0.43670581  0.41436693  0.47404357     1.01620
C102        C  0.07321095  0.50891605  0.01364287     1.00470
C103        C  0.01064743  0.09592930  0.03970960     1.00530
C104        C  0.37038080  0.00889622  0.99742929     1.03140
H105        H  0.01147607  0.03422107  0.01338355     0.30510
O106        O  0.49704845  0.01920135  0.02828931    -1.04750
H107        H  0.38566913  0.00990441  0.06686915     0.32560
O108        O  0.40783708  0.50247389  0.06612238    -1.07310
C109        C  0.41489951  0.36224092  0.23900109    -0.21050
C110        C  0.42779193  0.37450452  0.26767438    -0.09090
C111        C  0.44006262  0.40817238  0.26666827     0.29770
C112        C  0.44088983  0.42839206  0.23704690    -0.21050
C113        C  0.43015762  0.41522006  0.20802641    -0.09100
C114        C  0.41634312  0.38226343  0.20935772     0.29770
F115        F  0.40551909  0.36905001  0.18154863    -0.19630
H116        H  0.40481233  0.33668892  0.23921559     0.18140
H117        H  0.45214026  0.45357786  0.23617959     0.18150
F118        F  0.45379531  0.42086068  0.29337734    -0.19610
C119        C  0.40194625  0.37235518  0.40119410    -0.21050
C120        C  0.42905446  0.35471123  0.39071613    -0.09090
C121        C  0.45669101  0.35412075  0.41013529     0.29770
C122        C  0.45788820  0.37228541  0.43820618    -0.21050
C123        C  0.43170269  0.39140150  0.44763014    -0.09100
C124        C  0.40312840  0.39048484  0.42959262     0.29770
F125        F  0.37753422  0.40893470  0.43791508    -0.19630
H126        H  0.38040844  0.37314154  0.38660229     0.18140
H127        H  0.48006694  0.37249059  0.45194163     0.18150
F128        F  0.48378218  0.33827148  0.40056939    -0.19610
C129        C  0.47570605  0.10101458  0.23094179    -0.21050
C130        C  0.00828120  0.10900680  0.23888775    -0.09090
C131        C  0.03476201  0.09895501  0.21884386     0.29770
C132        C  0.02846999  0.08084723  0.19114019    -0.21050
C133        C  0.49566273  0.07200945  0.18353296    -0.09100
C134        C  0.46929371  0.08262257  0.20376330     0.29770
F135        F  0.43714697  0.07512969  0.19762139    -0.19630
H136        H  0.45507262  0.10830449  0.24650478     0.18140
H137        H  0.04923959  0.07301156  0.17619128     0.18150
F138        F  0.06653298  0.10624101  0.22635066    -0.19610
C139        C  0.47706785  0.09617870  0.37970664    -0.21050
C140        C  0.00663421  0.09385155  0.36042389    -0.09090
C141        C  0.02767223  0.06891608  0.36942982     0.29770
C142        C  0.01966878  0.04774140  0.39832524    -0.21050
C143        C  0.49055450  0.05115652  0.41833109    -0.09100
C144        C  0.46899497  0.07524502  0.40811448     0.29770
F145        F  0.43995176  0.07892511  0.42567933    -0.19630
H146        H  0.45986683  0.11435373  0.37261563     0.18140
H147        H  0.03670898  0.02951411  0.40561376     0.18150
F148        F  0.05631190  0.06579453  0.35101672    -0.19610
C149        C  0.48954043  0.26360728  0.29298086    -0.21050
C150        C  0.46288015  0.26617057  0.31655697    -0.09090
C151        C  0.44975141  0.23733210  0.33562590     0.29770
C152        C  0.46319763  0.20688158  0.33138422    -0.21050
C153        C  0.48998721  0.20430321  0.30805023    -0.09100
C154        C  0.00295089  0.23299546  0.28866000     0.29770
F155        F  0.02904862  0.23162083  0.26617016    -0.19630
H156        H  0.50035050  0.28547310  0.27819130     0.18140
H157        H  0.45219625  0.18502287  0.34607463     0.18150
F158        F  0.42323827  0.23830639  0.35770508    -0.19610
C159        C  0.13588546  0.04164447  0.44480754    -0.21050
C160        C  0.16443706  0.02699367  0.45470438    -0.09090
C161        C  0.16329703  0.00878341  0.48595180     0.29770
C162        C  0.13398298  0.50497823  0.00640483    -0.21050
C163        C  0.10531319  0.01851450  0.49572476    -0.09100
C164        C  0.10645022  0.03716287  0.46497928     0.29770
F165        F  0.07869226  0.04997460  0.45396106    -0.19630
H166        H  0.13611149  0.05569862  0.42097306     0.18140
H167        H  0.13310950  0.48974414  0.02962108     0.18150
F168        F  0.18967519  0.49250792  0.49567065    -0.19610
C169        C  0.34307434  0.03734264  0.44994664    -0.21050
C170        C  0.34112224  0.01484406  0.47830859    -0.09090
C171        C  0.31078268  0.99664992  0.48796337     0.29770
C172        C  0.28332771  0.00052658  0.46952806    -0.21050
C173        C  0.28507593  0.02276387  0.44120201    -0.09100
C174        C  0.31520764  0.04115236  0.43128303     0.29770
F175        F  0.31744465  0.06312870  0.40417430    -0.19630
H176        H  0.36620497  0.05152705  0.44201470     0.18140
H177        H  0.26032424  0.48613328  0.47758833     0.18150
F178        F  0.30731072  0.47547675  0.01574738    -0.19610
C179        C  0.13913810  0.47390211  0.16404134    -0.21050
C180        C  0.13968049  0.44730201  0.18787009    -0.09090
C181        C  0.11240503  0.42367340  0.19269272     0.29770
C182        C  0.08474703  0.42699478  0.17361430    -0.21050
C183        C  0.08417375  0.45393307  0.14964629    -0.09100
C184        C  0.11200060  0.47726462  0.14504710     0.29770
F185        F  0.11358172  0.50321921  0.12168916    -0.19630
H186        H  0.16027703  0.49199234  0.15974929     0.18140
H187        H  0.06380290  0.40870766  0.17770991     0.18150
F188        F  0.11281098  0.39729005  0.21525120    -0.19610
C189        C  0.28938872  0.42997453  0.18584718    -0.21050
C190        C  0.26033011  0.44182553  0.17372807    -0.09090
C191        C  0.26107112  0.45488658  0.14026094     0.29770
C192        C  0.29060527  0.45721141  0.12011131    -0.21050
C193        C  0.31988474  0.44739410  0.13314407    -0.09100
C194        C  0.31898288  0.43303632  0.16590148     0.29770
F195        F  0.34708976  0.42313020  0.17898048    -0.19630
H196        H  0.28947470  0.41940909  0.21121749     0.18140
H197        H  0.29112220  0.46890193  0.09511039     0.18150
F198        F  0.23411178  0.46800565  0.12772037    -0.19610
C199        C  0.18845718  0.46291562  0.30918814    -0.21050
C200        C  0.20918054  0.47580504  0.28152434    -0.09090
C201        C  0.23336276  0.50177488  0.28579818     0.29770
C202        C  0.23680862  0.01407025  0.31717034    -0.21050
C203        C  0.21609356  0.00106411  0.34483680    -0.09100
C204        C  0.19187692  0.47518492  0.34047741     0.29770
F205        F  0.17219818  0.46081724  0.36669309    -0.19630
H206        H  0.16995907  0.44270489  0.30672473     0.18140
H207        H  0.25540101  0.03415925  0.31976449     0.18150
F208        F  0.25308107  0.01597276  0.25953071    -0.19610
C209        C  0.34689927  0.10259593  0.11464870    -0.21050
C210        C  0.37714637  0.10451013  0.09523532    -0.09090
C211        C  0.38848260  0.13485253  0.07771865     0.29770
C212        C  0.36968546  0.16218609  0.07876006    -0.21050
C213        C  0.33929180  0.16042143  0.09754666    -0.09100
C214        C  0.32790192  0.13044903  0.11571107     0.29770
F215        F  0.29890327  0.12831339  0.13468617    -0.19630
H216        H  0.33764411  0.07943915  0.12818427     0.18140
H217        H  0.37901789  0.18509322  0.06474634     0.18150
F218        F  0.41799874  0.13823845  0.05948035    -0.19610
C219        C  0.38557524  0.28152154  0.09262281    -0.21120
C220        C  0.35149829  0.28166962  0.10233456    -0.09090
C221        C  0.33927205  0.31130555  0.11267650     0.29770
C222        C  0.36005910  0.34047886  0.11073641    -0.21050
C223        C  0.39350323  0.34056198  0.09923450    -0.09100
C224        C  0.40650935  0.31065842  0.09139355     0.29770
F225        F  0.43864904  0.31017396  0.07987010    -0.19630
H226        H  0.39577464  0.25925608  0.08419302     0.18140
H227        H  0.34973478  0.36344298  0.11710385     0.18150
F228        F  0.30712707  0.31232570  0.12398857    -0.19610
C229        C  0.02079370  0.15594697  0.04823457    -0.21050
C230        C  0.02795935  0.12856624  0.03032945    -0.09090
C231        C  0.05536138  0.13110572  0.00700545     0.29770
C232        C  0.07597002  0.16046885  0.50236761    -0.21050
C233        C  0.06948352  0.18767103  0.02096113    -0.09100
C234        C  0.04139220  0.18535905  0.04365842     0.29770
F235        F  0.03517702  0.21068796  0.06305033    -0.19630
H236        H  0.00023680  0.15397055  0.06691206     0.18140
H237        H  0.09747779  0.16172894  0.48488031     0.18150
F238        F  0.06285570  0.10467725  0.48969300    -0.19610
C239        C  0.05462497  0.35304284  0.49980443    -0.21050
C240        C  0.05206951  0.36582900  0.03136661    -0.09090
C241        C  0.06893683  0.35096096  0.05734437     0.29770
C242        C  0.08705468  0.32345858  0.05205056    -0.21050
C243        C  0.08833315  0.30977868  0.02106293    -0.09100
C244        C  0.07226294  0.32492258  0.49476210     0.29770
F245        F  0.07310725  0.31211367  0.46450390    -0.19630
H246        H  0.04185479  0.36396575  0.47944035     0.18140
H247        H  0.09896478  0.31186104  0.07268289     0.18150
F248        F  0.06761879  0.36270758  0.08810414    -0.19610
C249        C  0.19246400  0.25591136  0.06737222    -0.21050
C250        C  0.18200440  0.23796557  0.04079852    -0.09090
C251        C  0.20321164  0.21529447  0.02739241     0.29770
C252        C  0.23407595  0.21083633  0.04049154    -0.21050
C253        C  0.24445610  0.22891074  0.06709898    -0.09100
C254        C  0.22313982  0.25148449  0.08041519     0.29770
F255        F  0.23151106  0.26870138  0.10679002    -0.19630
H256        H  0.17641997  0.27290792  0.07875050     0.18140
H257        H  0.25013499  0.19368009  0.02941399     0.18150
F258        F  0.19445273  0.19797979  0.00120360    -0.19610
C259        C  0.10293692  0.27748816  0.01821992     0.03390
C260        C  0.13608148  0.27381905  0.52530260    -0.12760
C261        C  0.14830669  0.24203896  0.52879095     0.00890
C262        C  0.12669145  0.21393880  0.52507088    -0.11290
C263        C  0.09330446  0.21735574  0.01870933     0.03380
C264        C  0.08189392  0.24920746  0.01445640    -0.10710
H265        H  0.15196972  0.29569808  0.52927638     0.08970
H266        H  0.13508310  0.18928451  0.52974340     0.06500
H267        H  0.05596077  0.25189438  0.01045602     0.06350
C268        C  0.32170580  0.19123525  0.59867168     0.03390
C269        C  0.29023052  0.19373808  0.58612296    -0.12760
C270        C  0.27770138  0.22521577  0.58040506     0.00890
C271        C  0.29776991  0.25386740  0.58618033    -0.11290
C272        C  0.32886513  0.25150922  0.59948568     0.03380
C273        C  0.33985912  0.22000891  0.60676175    -0.10710
H274        H  0.27615852  0.17150017  0.57986350     0.08970
H275        H  0.28965050  0.27809663  0.57889701     0.06500
H276        H  0.36388355  0.21778912  0.61681130     0.06350
C277        C  0.17051201  0.44409814  0.70491670     0.03390
C278        C  0.17383512  0.45620863  0.73642528    -0.12760
C279        C  0.20546790  0.46174599  0.74861874     0.00890
C280        C  0.23359985  0.45510986  0.72861414    -0.11290
C281        C  0.23048149  0.44344509  0.69677371     0.03380
C282        C  0.19872596  0.43678598  0.68583425    -0.10710
H283        H  0.15206366  0.46322117  0.75046680     0.08970
H284        H  0.25804385  0.46009804  0.73741344     0.06500
H285        H  0.19585953  0.42795977  0.66132722     0.06350
C286        C  0.25429333  0.02688066  0.92398976     0.03390
C287        C  0.25140763  0.01802024  0.89112355    -0.12760
C288        C  0.21990677  0.01419558  0.87814206     0.00890
C289        C  0.19160813  0.01990424  0.89839351    -0.11290
C290        C  0.19433854  0.02812698  0.93141287     0.03380
C291        C  0.22580867  0.03309768  0.94333267    -0.10710
H292        H  0.27321902  0.01171893  0.87666890     0.08970
H293        H  0.16723867  0.01620445  0.88901238     0.06500
H294        H  0.22807937  0.03948839  0.96880620     0.06350
C295        C  0.01348228  0.12491119  0.77011123     0.03390
C296        C  0.00648033  0.15826928  0.77277754    -0.12760
C297        C  0.00340090  0.17133680  0.80414538     0.00890
C298        C  0.00803274  0.15073424  0.83261089    -0.11290
C299        C  0.01343307  0.11698200  0.83036203     0.03380
C300        C  0.01729384  0.10450503  0.79892991    -0.10710
H301        H  0.00090909  0.17312978  0.75074559     0.08970
H302        H  0.00461452  0.16026942  0.85697058     0.06500
H303        H  0.01953727  0.07811584  0.79701546     0.06350
C304        C  0.43062183  0.34093124  0.85754134     0.03390
C305        C  0.42409241  0.36122906  0.82949352    -0.12760
C306        C  0.43100125  0.35136608  0.79730175     0.00890
C307        C  0.44318942  0.31999998  0.79336507    -0.11290
C308        C  0.44890855  0.29881585  0.82112019     0.03380
C309        C  0.44255073  0.30954810  0.85318125    -0.10710
H310        H  0.41499203  0.38544945  0.83274275     0.08970
H311        H  0.44887200  0.31228005  0.76859282     0.06500
H312        H  0.44796216  0.29396343  0.87476827     0.06350
O313        O  0.02700195  0.41537374  0.51390629    -0.79870
O314        O  0.42735003  0.46217617  0.66958333    -0.81430
O315        O  0.03267350  0.43450820  0.62815095    -0.78450
O316        O  0.44136339  0.37855432  0.60059933    -0.76830
O317        O  0.39701521  0.39301957  0.57160973    -0.78620
O318        O  0.05342681  0.48815156  0.61586717    -0.79550
O319        O  0.45680575  0.41833185  0.65502449    -0.80880
O320        O  0.01692043  0.39331268  0.56755204    -0.81170
Eu321      Eu  0.48101464  0.42853615  0.59830446     2.39200
O322        O  0.42824539  0.44865384  0.59908251    -0.88680
O323        O  0.01651366  0.46489542  0.56194450    -0.92280
C324        C  0.03068707  0.39332213  0.53787607     1.02410
C325        C  0.43852013  0.43331973  0.67554395     1.02230
C326        C  0.05482910  0.45887110  0.63002766     1.02170
C327        C  0.41213764  0.37264902  0.59003347     1.00030
H328        H  0.48996295  0.48162703  0.64032956     0.29780
O329        O  0.48203378  0.48220533  0.61822673    -1.01070
H330        H  0.46030967  0.40719269  0.53734937     0.29810
O331        O  0.46097765  0.42944905  0.54474514    -1.03610
O332        O  0.39781540  0.05260638  0.61419234    -0.80830
O333        O  0.49682810  0.50478197  0.95765744    -0.80370
O334        O  0.01235605  0.04831806  0.63287589    -0.78810
O335        O  0.35788612  0.44640751  0.58582393    -0.82150
O336        O  0.41255667  0.41794352  0.49568409    -0.80000
O337        O  0.06689874  0.02025682  0.54238510    -0.78650
O338        O  0.48222669  0.08883031  0.52795784    -0.80170
O339        O  0.39265833  0.03298937  0.49965901    -0.82100
O340        O  0.02614177  0.07610293  0.55848932    -0.78840
O341        O  0.37128534  0.47937496  0.51129703    -0.81510
O342        O  0.45931003  0.03701093  0.65527931    -0.77250
O343        O  0.05310143  0.49014332  0.49839114    -0.77280
O344        O  0.46602925  0.42893494  0.97391651    -0.76920
O345        O  0.37228260  0.47556817  0.63021848    -0.80420
O346        O  0.40973366  0.07405959  0.56058958    -0.79850
O347        O  0.46546175  0.04694099  0.97238196    -0.78170
Eu348      Eu  0.42832244  0.50139154  0.61964031     2.39770
Eu349      Eu  0.49631389  0.46609273  0.50834783     2.39570
Eu350      Eu  0.01712175  0.01856236  0.58142638     2.38400
Eu351      Eu  0.40741546  0.44903000  0.54635293     2.39880
Eu352      Eu  0.44386013  0.03818869  0.52978649     2.39790
O353        O  0.44252874  0.48492240  0.50944021    -0.92590
O354        O  0.46365538  0.03790022  0.58339190    -0.91480
C355        C  0.39590722  0.07499352  0.59002786     1.02580
C356        C  0.48381865  0.03271323  0.95133637     1.01300
C357        C  0.48879922  0.05119057  0.65538561     1.00690
C358        C  0.35199773  0.45695296  0.61500263     1.02700
C359        C  0.43670588  0.41436697  0.97404360     1.01620
C360        C  0.07321089  0.50891600  0.51364287     1.00470
C361        C  0.01064727  0.09592925  0.53970955     1.00530
C362        C  0.37038075  0.00889614  0.49742930     1.03140
H363        H  0.01147599  0.03422101  0.51338354     0.30510
O364        O  0.49704840  0.01920131  0.52828931    -1.04750
H365        H  0.38566908  0.00990434  0.56686916     0.32560
O366        O  0.40783702  0.50247383  0.56612238    -1.07310
C367        C  0.41489946  0.36224086  0.73900115    -0.21050
C368        C  0.42779189  0.37450449  0.76767442    -0.09090
C369        C  0.44006258  0.40817236  0.76666829     0.29770
C370        C  0.44088977  0.42839202  0.73704690    -0.21050
C371        C  0.43015756  0.41521999  0.70802642    -0.09100
C372        C  0.41634306  0.38226336  0.70935776     0.29770
F373        F  0.40551903  0.36904992  0.68154869    -0.19630
H374        H  0.40481229  0.33668887  0.73921566     0.18140
H375        H  0.45214020  0.45357782  0.73617956     0.18150
F376        F  0.45379527  0.42086067  0.79337734    -0.19610
C377        C  0.40194629  0.37235520  0.90119415    -0.21050
C378        C  0.42905451  0.35471125  0.89071617    -0.09090
C379        C  0.45669107  0.35412078  0.91013532     0.29770
C380        C  0.45788827  0.37228544  0.93820620    -0.21050
C381        C  0.43170276  0.39140153  0.94763017    -0.09100
C382        C  0.40312846  0.39048487  0.92959266     0.29770
F383        F  0.37753428  0.40893472  0.93791513    -0.19630
H384        H  0.38040848  0.37314155  0.88660235     0.18140
H385        H  0.48006701  0.37249063  0.95194165     0.18150
F386        F  0.48378223  0.33827150  0.90056941    -0.19610
C387        C  0.47570601  0.10101457  0.73094179    -0.21050
C388        C  0.00828117  0.10900680  0.73888771    -0.09090
C389        C  0.03476196  0.09895501  0.71884381     0.29770
C390        C  0.02846994  0.08084723  0.69114015    -0.21050
C391        C  0.49566268  0.07200944  0.68353295    -0.09100
C392        C  0.46929366  0.08262256  0.70376330     0.29770
F393        F  0.43714693  0.07512966  0.69762141    -0.19630
H394        H  0.45507258  0.10830447  0.74650479     0.18140
H395        H  0.04923954  0.07301156  0.67619123     0.18150
F396        F  0.06653294  0.10624103  0.72635059    -0.19610
C397        C  0.47706786  0.09617869  0.87970660    -0.21050
C398        C  0.00663423  0.09385155  0.86042385    -0.09090
C399        C  0.02767227  0.06891610  0.86942979     0.29770
C400        C  0.01966883  0.04774143  0.89832522    -0.21050
C401        C  0.49055453  0.05115654  0.91833108    -0.09100
C402        C  0.46899498  0.07524502  0.90811445     0.29770
F403        F  0.43995176  0.07892509  0.92567929    -0.19630
H404        H  0.45986683  0.11435370  0.87261558     0.18140
H405        H  0.03670905  0.02951417  0.90561376     0.18150
F406        F  0.05631194  0.06579457  0.85101670    -0.19610
C407        C  0.48954043  0.26360729  0.79298088    -0.21050
C408        C  0.46288016  0.26617057  0.81655701    -0.09090
C409        C  0.44975143  0.23733210  0.83562594     0.29770
C410        C  0.46319765  0.20688158  0.83138424    -0.21050
C411        C  0.48998721  0.20430321  0.80805023    -0.09100
C412        C  0.00295089  0.23299546  0.78865998     0.29770
F413        F  0.02904860  0.23162082  0.76617013    -0.19630
H414        H  0.50035049  0.28547311  0.77819132     0.18140
H415        H  0.45219627  0.18502287  0.84607465     0.18150
F416        F  0.42323830  0.23830639  0.85770514    -0.19610
C417        C  0.13588551  0.04164448  0.94480753    -0.21050
C418        C  0.16443711  0.02699368  0.95470437    -0.09090
C419        C  0.16329709  0.00878344  0.98595179     0.29770
C420        C  0.13398293  0.50497819  0.50640483    -0.21050
C421        C  0.10531325  0.01851452  0.99572477    -0.09100
C422        C  0.10645027  0.03716289  0.96497928     0.29770
F423        F  0.07869231  0.04997462  0.95396107    -0.19630
H424        H  0.13611153  0.05569863  0.92097306     0.18140
H425        H  0.13310945  0.48974411  0.52962108     0.18150
F426        F  0.18967523  0.49250794  0.99567064    -0.19610
C427        C  0.34307439  0.03734269  0.94994661    -0.21050
C428        C  0.34112229  0.01484414  0.97830858    -0.09090
C429        C  0.31078273  0.99665000  0.98796338     0.29770
C430        C  0.28332776  0.00052664  0.96952806    -0.21050
C431        C  0.28507598  0.02276390  0.94120199    -0.09100
C432        C  0.31520769  0.04115238  0.93128300     0.29770
F433        F  0.31744470  0.06312871  0.90417424    -0.19630
H434        H  0.36620502  0.05152710  0.94201466     0.18140
H435        H  0.26032431  0.48613325  0.97758828     0.18150
F436        F  0.30731066  0.47547678  0.51574742    -0.19610
C437        C  0.13913806  0.47390204  0.66404129    -0.21050
C438        C  0.13968043  0.44730198  0.68787009    -0.09090
C439        C  0.11240496  0.42367339  0.69269277     0.29770
C440        C  0.08474696  0.42699474  0.67361433    -0.21050
C441        C  0.08417369  0.45393299  0.64964627    -0.09100
C442        C  0.11200056  0.47726452  0.64504704     0.29770
F443        F  0.11358169  0.50321905  0.62168904    -0.19630
H444        H  0.16027699  0.49199225  0.65974920     0.18140
H445        H  0.06380281  0.40870764  0.67770999     0.18150
F446        F  0.11281090  0.39729007  0.71525130    -0.19610
C447        C  0.28938866  0.42997450  0.68584719    -0.21050
C448        C  0.26033005  0.44182551  0.67372807    -0.09090
C449        C  0.26107105  0.45488654  0.64026094     0.29770
C450        C  0.29060521  0.45721135  0.62011130    -0.21050
C451        C  0.31988468  0.44739405  0.63314407    -0.09100
C452        C  0.31898281  0.43303628  0.66590149     0.29770
F453        F  0.34708969  0.42313016  0.67898049    -0.19630
H454        H  0.28947464  0.41940908  0.71121750     0.18140
H455        H  0.29112213  0.46890186  0.59511038     0.18150
F456        F  0.23411172  0.46800560  0.62772037    -0.19610
C457        C  0.18845715  0.46291566  0.80918814    -0.21050
C458        C  0.20918050  0.47580507  0.78152432    -0.09090
C459        C  0.23336273  0.50177491  0.78579816     0.29770
C460        C  0.23680864  0.01407024  0.81717033    -0.21050
C461        C  0.21609358  0.00106410  0.84483679    -0.09100
C462        C  0.19187692  0.47518496  0.84047741     0.29770
F463        F  0.17219819  0.46081728  0.86669310    -0.19630
H464        H  0.16995903  0.44270494  0.80672473     0.18140
H465        H  0.25540103  0.03415923  0.81976447     0.18150
F466        F  0.25308106  0.01597275  0.75953069    -0.19610
C467        C  0.34689915  0.10259585  0.61464867    -0.21050
C468        C  0.37714623  0.10451004  0.59523526    -0.09090
C469        C  0.38848242  0.13485242  0.57771854     0.29770
C470        C  0.36968526  0.16218596  0.57875991    -0.21050
C471        C  0.33929161  0.16042131  0.59754654    -0.09100
C472        C  0.32790177  0.13044893  0.61571101     0.29770
F473        F  0.29890314  0.12831330  0.63468614    -0.19630
H474        H  0.33764402  0.07943908  0.62818429     0.18140
H475        H  0.37901765  0.18509307  0.56474614     0.18150
F476        F  0.41799854  0.13823834  0.55948020    -0.19610
C477        C  0.38557505  0.28152145  0.59262258    -0.21120
C478        C  0.35149810  0.28166953  0.60233429    -0.09090
C479        C  0.33927185  0.31130547  0.61267622     0.29770
C480        C  0.36005892  0.34047877  0.61073617    -0.21050
C481        C  0.39350307  0.34056187  0.59923433    -0.09100
C482        C  0.40650918  0.31065831  0.59139337     0.29770
F483        F  0.43864888  0.31017384  0.57986996    -0.19630
H484        H  0.39577445  0.25925598  0.58419280     0.18140
H485        H  0.34973461  0.36344289  0.61710361     0.18150
F486        F  0.30712686  0.31232563  0.62398824    -0.19610
C487        C  0.02079358  0.15594691  0.54823454    -0.21050
C488        C  0.02795916  0.12856619  0.53032937    -0.09090
C489        C  0.05536108  0.13110570  0.50700523     0.29770
C490        C  0.07597033  0.16046887  0.00236788    -0.21050
C491        C  0.06948330  0.18767099  0.52096092    -0.09100
C492        C  0.04139206  0.18535900  0.54365832     0.29770
F493        F  0.03517695  0.21068790  0.56305026    -0.19630
H494        H  0.00023675  0.15397048  0.56691210     0.18140
H495        H  0.09747816  0.16172895  0.98488066     0.18150
F496        F  0.06285609  0.10467725  0.98969328    -0.19610
C497        C  0.05462512  0.35304288  0.99980453    -0.21050
C498        C  0.05206940  0.36582893  0.53136653    -0.09090
C499        C  0.06893672  0.35096087  0.55734426     0.29770
C500        C  0.08705456  0.32345849  0.55205042    -0.21050
C501        C  0.08833301  0.30977861  0.52106278    -0.09100
C502        C  0.07226310  0.32492263  0.99476223     0.29770
F503        F  0.07310744  0.31211370  0.96450404    -0.19630
H504        H  0.04185494  0.36396577  0.97944043     0.18140
H505        H  0.09896467  0.31186093  0.57268273     0.18150
F506        F  0.06761871  0.36270747  0.58810405    -0.19610
C507        C  0.19246377  0.25591118  0.56737209    -0.21050
C508        C  0.18200418  0.23796541  0.54079838    -0.09090
C509        C  0.20321141  0.21529430  0.52739228     0.29770
C510        C  0.23407571  0.21083614  0.54049141    -0.21050
C511        C  0.24445587  0.22891056  0.56709885    -0.09100
C512        C  0.22313958  0.25148430  0.58041507     0.29770
F513        F  0.23151082  0.26870119  0.60678990    -0.19630
H514        H  0.17641974  0.27290774  0.57875037     0.18140
H515        H  0.25013475  0.19367991  0.52941387     0.18150
F516        F  0.19445250  0.19797961  0.50120347    -0.19610
C517        C  0.10293685  0.77748811  0.51821989     0.03390
C518        C  0.13608161  0.77381915  0.02530273    -0.12760
C519        C  0.14830684  0.74203906  0.02879109     0.00890
C520        C  0.12669161  0.71393888  0.02507105    -0.11290
C521        C  0.09330439  0.71735568  0.51870930     0.03380
C522        C  0.08189385  0.74920740  0.51445637    -0.10710
H523        H  0.15196984  0.79569819  0.02927648     0.08970
H524        H  0.13508329  0.68928461  0.02974357     0.06500
H525        H  0.05596070  0.75189433  0.51045599     0.06350
C526        C  0.32170595  0.69123535  0.09867179     0.03390
C527        C  0.29023068  0.69373820  0.08612305    -0.12760
C528        C  0.27770155  0.72521590  0.08040518     0.00890
C529        C  0.29777007  0.75386752  0.08618049    -0.11290
C530        C  0.32886528  0.75150932  0.09948587     0.03380
C531        C  0.33985926  0.72000899  0.10676192    -0.10710
H532        H  0.27615868  0.67150031  0.07986356     0.08970
H533        H  0.28965068  0.77809676  0.07889719     0.06500
H534        H  0.36388368  0.71778919  0.11681147     0.06350
C535        C  0.17051207  0.94409816  0.20491669     0.03390
C536        C  0.17383518  0.95620863  0.23642528    -0.12760
C537        C  0.20546795  0.96174598  0.24861874     0.00890
C538        C  0.23359991  0.95510985  0.22861415    -0.11290
C539        C  0.23048155  0.94344510  0.19677371     0.03380
C540        C  0.19872602  0.93678600  0.18583425    -0.10710
H541        H  0.15206372  0.96322116  0.25046680     0.08970
H542        H  0.25804390  0.96009803  0.23741346     0.06500
H543        H  0.19585960  0.92795980  0.16132720     0.06350
C544        C  0.25429328  0.52688066  0.42398977     0.03390
C545        C  0.25140759  0.51802024  0.39112357    -0.12760
C546        C  0.21990674  0.51419557  0.37814208     0.00890
C547        C  0.19160809  0.51990421  0.39839351    -0.11290
C548        C  0.19433848  0.52812695  0.43141288     0.03380
C549        C  0.22580861  0.53309767  0.44333268    -0.10710
H550        H  0.27321899  0.51171894  0.37666892     0.08970
H551        H  0.16723863  0.51620441  0.38901239     0.06500
H552        H  0.22807931  0.53948838  0.46880621     0.06350
C553        C  0.01348231  0.62491119  0.27011126     0.03390
C554        C  0.00648036  0.65826928  0.27277756    -0.12760
C555        C  0.00340092  0.67133681  0.30414539     0.00890
C556        C  0.00803274  0.65073425  0.33261092    -0.11290
C557        C  0.01343307  0.61698201  0.33036206     0.03380
C558        C  0.01729385  0.60450503  0.29892995    -0.10710
H559        H  0.00090913  0.67312979  0.25074561     0.08970
H560        H  0.00461451  0.66026944  0.35697060     0.06500
H561        H  0.01953728  0.57811584  0.29701550     0.06350
C562        C  0.43062181  0.84093123  0.35754130     0.03390
C563        C  0.42409239  0.86122906  0.32949348    -0.12760
C564        C  0.43100125  0.85136609  0.29730171     0.00890
C565        C  0.44318941  0.81999998  0.29336503    -0.11290
C566        C  0.44890853  0.79881585  0.32112015     0.03380
C567        C  0.44255070  0.80954810  0.35318121    -0.10710
H568        H  0.41499201  0.88544944  0.33274272     0.08970
H569        H  0.44887200  0.81228006  0.26859278     0.06500
H570        H  0.44796213  0.79396342  0.37476823     0.06350
O571        O  0.02700203  0.91537379  0.01390632    -0.79870
O572        O  0.42735007  0.96217624  0.16958332    -0.81430
O573        O  0.03267357  0.93450829  0.12815097    -0.78450
O574        O  0.44136351  0.87855441  0.10059939    -0.76830
O575        O  0.39701531  0.89301963  0.07160980    -0.78620
O576        O  0.05342688  0.98815165  0.11586718    -0.79550
O577        O  0.45680582  0.91833193  0.15502450    -0.80880
O578        O  0.01692051  0.89331276  0.06755208    -0.81170
Eu579      Eu  0.48101473  0.92853625  0.09830447     2.39200
O580        O  0.42824547  0.94865391  0.09908251    -0.88680
O581        O  0.01651373  0.96489549  0.06194450    -0.92280
C582        C  0.03068715  0.89332219  0.03787611     1.02410
C583        C  0.43852019  0.93331979  0.17554395     1.02230
C584        C  0.05482917  0.95887119  0.13002767     1.02170
C585        C  0.41213775  0.87264910  0.09003355     1.00030
H586        H  0.48996302  0.98162712  0.14032957     0.29780
O587        O  0.48203385  0.98220542  0.11822673    -1.01070
H588        H  0.46030975  0.90719274  0.03734940     0.29810
O589        O  0.46097772  0.92944911  0.04474516    -1.03610
O590        O  0.39781548  0.55260645  0.11419234    -0.80830
O591        O  0.49682807  0.00478193  0.45765745    -0.80370
O592        O  0.01235611  0.54831809  0.13287591    -0.78810
O593        O  0.35788618  0.94640756  0.08582394    -0.82150
O594        O  0.41255673  0.91794355  0.99568411    -0.80000
O595        O  0.06689880  0.52025683  0.04238511    -0.78650
O596        O  0.48222679  0.58883037  0.02795786    -0.80170
O597        O  0.39265838  0.53298946  0.99965901    -0.82100
O598        O  0.02614188  0.57610295  0.05848936    -0.78840
O599        O  0.37128540  0.97937499  0.01129703    -0.81510
O600        O  0.45931008  0.53701097  0.15527931    -0.77250
O601        O  0.05310149  0.99014338  0.99839115    -0.77280
O602        O  0.46602921  0.92893490  0.47391651    -0.76920
O603        O  0.37228266  0.97556823  0.13021847    -0.80420
O604        O  0.40973375  0.57405969  0.06058959    -0.79850
O605        O  0.46546171  0.54694096  0.47238198    -0.78170
Eu606      Eu  0.42832249  0.00139161  0.11964030     2.39770
Eu607      Eu  0.49631395  0.96609278  0.00834783     2.39570
Eu608      Eu  0.01712181  0.51856239  0.08142639     2.38400
Eu609      Eu  0.40741553  0.94903004  0.04635294     2.39880
Eu610      Eu  0.44386019  0.53818877  0.02978649     2.39790
O611        O  0.44252880  0.98492244  0.00944021    -0.92590
O612        O  0.46365544  0.53790028  0.08339190    -0.91480
C613        C  0.39590731  0.57499361  0.09002787     1.02580
C614        C  0.48381861  0.53271320  0.45133639     1.01300
C615        C  0.48879927  0.55119061  0.15538562     1.00690
C616        C  0.35199779  0.95695301  0.11500263     1.02700
C617        C  0.43670585  0.91436692  0.47404359     1.01620
C618        C  0.07321095  0.00891606  0.01364287     1.00470
C619        C  0.01064740  0.59592929  0.03970959     1.00530
C620        C  0.37038080  0.50889622  0.99742929     1.03140
H621        H  0.01147606  0.53422105  0.01338355     0.30510
O622        O  0.49704845  0.51920137  0.02828931    -1.04750
H623        H  0.38566914  0.50990442  0.06686916     0.32560
O624        O  0.40783708  0.00247388  0.06612238    -1.07310
C625        C  0.41489950  0.86224090  0.23900110    -0.21050
C626        C  0.42779190  0.87450451  0.26767438    -0.09090
C627        C  0.44006258  0.90817238  0.26666827     0.29770
C628        C  0.44088979  0.92839205  0.23704689    -0.21050
C629        C  0.43015760  0.91522004  0.20802641    -0.09100
C630        C  0.41634311  0.88226341  0.20935772     0.29770
F631        F  0.40551909  0.86904998  0.18154863    -0.19630
H632        H  0.40481232  0.83668890  0.23921559     0.18140
H633        H  0.45214021  0.95357785  0.23617958     0.18150
F634        F  0.45379526  0.92086068  0.29337734    -0.19610
C635        C  0.40194626  0.87235517  0.40119412    -0.21050
C636        C  0.42905448  0.85471123  0.39071613    -0.09090
C637        C  0.45669105  0.85412077  0.41013527     0.29770
C638        C  0.45788824  0.87228542  0.43820617    -0.21050
C639        C  0.43170272  0.89140149  0.44763015    -0.09100
C640        C  0.40312842  0.89048483  0.42959264     0.29770
F641        F  0.37753424  0.90893468  0.43791512    -0.19630
H642        H  0.38040845  0.87314153  0.38660233     0.18140
H643        H  0.48006698  0.87249060  0.45194161     0.18150
F644        F  0.48378221  0.83827150  0.40056936    -0.19610
C645        C  0.47570606  0.60101458  0.23094181    -0.21050
C646        C  0.00828120  0.60900680  0.23888774    -0.09090
C647        C  0.03476201  0.59895501  0.21884385     0.29770
C648        C  0.02846999  0.58084723  0.19114018    -0.21050
C649        C  0.49566273  0.57200947  0.18353296    -0.09100
C650        C  0.46929371  0.58262258  0.20376331     0.29770
F651        F  0.43714697  0.57512969  0.19762141    -0.19630
H652        H  0.45507262  0.60830448  0.24650481     0.18140
H653        H  0.04923959  0.57301156  0.17619127     0.18150
F654        F  0.06653298  0.60624102  0.22635064    -0.19610
C655        C  0.47706786  0.59617872  0.37970664    -0.21050
C656        C  0.00663422  0.59385156  0.36042388    -0.09090
C657        C  0.02767224  0.56891609  0.36942981     0.29770
C658        C  0.01966879  0.54774141  0.39832524    -0.21050
C659        C  0.49055451  0.55115653  0.41833110    -0.09100
C660        C  0.46899498  0.57524504  0.40811449     0.29770
F661        F  0.43995177  0.57892513  0.42567934    -0.19630
H662        H  0.45986684  0.61435374  0.37261564     0.18140
H663        H  0.03670899  0.52951412  0.40561376     0.18150
F664        F  0.05631190  0.56579453  0.35101671    -0.19610
C665        C  0.48954043  0.76360729  0.29298086    -0.21050
C666        C  0.46288015  0.76617057  0.31655697    -0.09090
C667        C  0.44975142  0.73733210  0.33562591     0.29770
C668        C  0.46319764  0.70688159  0.33138423    -0.21050
C669        C  0.48998722  0.70430322  0.30805024    -0.09100
C670        C  0.00295089  0.73299547  0.28865998     0.29770
F671        F  0.02904862  0.73162083  0.26617014    -0.19630
H672        H  0.50035049  0.78547311  0.27819130     0.18140
H673        H  0.45219627  0.68502288  0.34607464     0.18150
F674        F  0.42323827  0.73830639  0.35770509    -0.19610
C675        C  0.13588545  0.54164443  0.44480754    -0.21050
C676        C  0.16443705  0.52699365  0.45470438    -0.09090
C677        C  0.16329703  0.50878340  0.48595180     0.29770
C678        C  0.13398298  0.00497824  0.00640483    -0.21050
C679        C  0.10531318  0.51851447  0.49572477    -0.09100
C680        C  0.10645021  0.53716283  0.46497928     0.29770
F681        F  0.07869224  0.54997456  0.45396107    -0.19630
H682        H  0.13611147  0.55569858  0.42097306     0.18140
H683        H  0.13310951  0.98974416  0.02962108     0.18150
F684        F  0.18967518  0.99250792  0.49567064    -0.19610
C685        C  0.34307434  0.53734269  0.44994663    -0.21050
C686        C  0.34112224  0.51484413  0.47830859    -0.09090
C687        C  0.31078268  0.49664999  0.48796338     0.29770
C688        C  0.28332771  0.50052663  0.46952807    -0.21050
C689        C  0.28507593  0.52276390  0.44120200    -0.09100
C690        C  0.31520763  0.54115239  0.43128302     0.29770
F691        F  0.31744464  0.56312872  0.40417427    -0.19630
H692        H  0.36620497  0.55152710  0.44201468     0.18140
H693        H  0.26032424  0.98613323  0.47758831     0.18150
F694        F  0.30731071  0.97547680  0.01574742    -0.19610
C695        C  0.13913812  0.97390210  0.16404131    -0.21050
C696        C  0.13968050  0.94730202  0.18787009    -0.09090
C697        C  0.11240502  0.92367343  0.19269275     0.29770
C698        C  0.08474702  0.92699480  0.17361432    -0.21050
C699        C  0.08417375  0.95393307  0.14964628    -0.09100
C700        C  0.11200062  0.97726460  0.14504707     0.29770
F701        F  0.11358175  0.00321916  0.12168910    -0.19630
H702        H  0.16027705  0.99199231  0.15974924     0.18140
H703        H  0.06380288  0.90870770  0.17770996     0.18150
F704        F  0.11281096  0.89729009  0.21525125    -0.19610
C705        C  0.28938872  0.92997453  0.18584719    -0.21050
C706        C  0.26033011  0.94182553  0.17372807    -0.09090
C707        C  0.26107111  0.95488657  0.14026094     0.29770
C708        C  0.29060527  0.95721139  0.12011130    -0.21050
C709        C  0.31988474  0.94739409  0.13314407    -0.09100
C710        C  0.31898288  0.93303631  0.16590148     0.29770
F711        F  0.34708976  0.92313020  0.17898048    -0.19630
H712        H  0.28947470  0.91940909  0.21121750     0.18140
H713        H  0.29112219  0.96890191  0.09511039     0.18150
F714        F  0.23411178  0.96800564  0.12772037    -0.19610
C715        C  0.18845717  0.96291565  0.30918814    -0.21050
C716        C  0.20918054  0.97580506  0.28152433    -0.09090
C717        C  0.23336277  0.00177490  0.28579818     0.29770
C718        C  0.23680862  0.51407024  0.31717034    -0.21050
C719        C  0.21609356  0.50106408  0.34483680    -0.09100
C720        C  0.19187691  0.97518495  0.34047740     0.29770
F721        F  0.17219817  0.96081728  0.36669309    -0.19630
H722        H  0.16995906  0.94270492  0.30672472     0.18140
H723        H  0.25540099  0.53415924  0.31976449     0.18150
F724        F  0.25308105  0.51597275  0.25953070    -0.19610
C725        C  0.34689925  0.60259593  0.11464870    -0.21050
C726        C  0.37714634  0.60451013  0.09523530    -0.09090
C727        C  0.38848255  0.63485252  0.07771861     0.29770
C728        C  0.36968541  0.66218607  0.07876002    -0.21050
C729        C  0.33929175  0.66042141  0.09754663    -0.09100
C730        C  0.32790189  0.63044903  0.11571106     0.29770
F731        F  0.29890325  0.62831338  0.13468617    -0.19630
H732        H  0.33764411  0.57943915  0.12818428     0.18140
H733        H  0.37901782  0.68509320  0.06474628     0.18150
F734        F  0.41799868  0.63823845  0.05948030    -0.19610
C735        C  0.38557519  0.78152153  0.09262276    -0.21120
C736        C  0.35149825  0.78166961  0.10233450    -0.09090
C737        C  0.33927200  0.81130554  0.11267644     0.29770
C738        C  0.36005906  0.84047885  0.11073636    -0.21050
C739        C  0.39350320  0.84056196  0.09923446    -0.09100
C740        C  0.40650931  0.81065840  0.09139351     0.29770
F741        F  0.43864900  0.81017393  0.07987007    -0.19630
H742        H  0.39577459  0.75925606  0.08419297     0.18140
H743        H  0.34973475  0.86344297  0.11710380     0.18150
F744        F  0.30712703  0.81232570  0.12398851    -0.19610
C745        C  0.02079368  0.65594696  0.04823458    -0.21050
C746        C  0.02795931  0.62856623  0.03032944    -0.09090
C747        C  0.05536131  0.63110573  0.00700540     0.29770
C748        C  0.07597024  0.66046882  0.50236784    -0.21050
C749        C  0.06948347  0.68767102  0.02096109    -0.09100
C750        C  0.04139217  0.68535903  0.04365842     0.29770
F751        F  0.03517702  0.71068794  0.06305034    -0.19630
H752        H  0.00023681  0.65397053  0.06691209     0.18140
H753        H  0.09747805  0.66172890  0.48488060     0.18150
F754        F  0.06285598  0.60467721  0.48969324    -0.19610
C755        C  0.05462505  0.85304283  0.49980451    -0.21050
C756        C  0.05206949  0.86582900  0.03136659    -0.09090
C757        C  0.06893682  0.85096096  0.05734434     0.29770
C758        C  0.08705466  0.82345857  0.05205052    -0.21050
C759        C  0.08833311  0.80977867  0.02106290    -0.09100
C760        C  0.07226302  0.82492257  0.49476221     0.29770
F761        F  0.07310734  0.81211363  0.46450402    -0.19630
H762        H  0.04185486  0.86396572  0.47944042     0.18140
H763        H  0.09896477  0.81186103  0.07268285     0.18150
F764        F  0.06761879  0.86270758  0.08810411    -0.19610
C765        C  0.19246395  0.75591134  0.06737218    -0.21050
C766        C  0.18200434  0.73796555  0.04079849    -0.09090
C767        C  0.20321159  0.71529445  0.02739239     0.29770
C768        C  0.23407589  0.71083630  0.04049151    -0.21050
C769        C  0.24445605  0.72891072  0.06709895    -0.09100
C770        C  0.22313976  0.75148446  0.08041516     0.29770
F771        F  0.23151100  0.76870136  0.10678999    -0.19630
H772        H  0.17641991  0.77290790  0.07875047     0.18140
H773        H  0.25013493  0.69368007  0.02941397     0.18150
F774        F  0.19445267  0.69797976  0.00120357    -0.19610
C775        C  0.10293687  0.77748815  0.01821988     0.03390
C776        C  0.13608159  0.77381910  0.52530273    -0.12760
C777        C  0.14830682  0.74203902  0.52879109     0.00890
C778        C  0.12669159  0.71393884  0.52507106    -0.11290
C779        C  0.09330441  0.71735573  0.01870929     0.03380
C780        C  0.08189387  0.74920745  0.01445636    -0.10710
H781        H  0.15196982  0.79569814  0.52927648     0.08970
H782        H  0.13508327  0.68928456  0.52974358     0.06500
H783        H  0.05596072  0.75189438  0.01045598     0.06350
C784        C  0.32170592  0.69123530  0.59867181     0.03390
C785        C  0.29023066  0.69373815  0.58612306    -0.12760
C786        C  0.27770153  0.72521585  0.58040518     0.00890
C787        C  0.29777006  0.75386747  0.58618049    -0.11290
C788        C  0.32886527  0.75150926  0.59948587     0.03380
C789        C  0.33985924  0.72000894  0.60676193    -0.10710
H790        H  0.27615866  0.67150026  0.57986357     0.08970
H791        H  0.28965067  0.77809671  0.57889719     0.06500
H792        H  0.36388366  0.71778914  0.61681149     0.06350
C793        C  0.17051204  0.94409818  0.70491668     0.03390
C794        C  0.17383515  0.95620865  0.73642527    -0.12760
C795        C  0.20546793  0.96174599  0.74861873     0.00890
C796        C  0.23359988  0.95510985  0.72861414    -0.11290
C797        C  0.23048151  0.94344508  0.69677370     0.03380
C798        C  0.19872598  0.93678601  0.68583424    -0.10710
H799        H  0.15206370  0.96322119  0.75046679     0.08970
H800        H  0.25804387  0.96009801  0.73741345     0.06500
H801        H  0.19585955  0.92795980  0.66132720     0.06350
C802        C  0.25429332  0.52688066  0.92398976     0.03390
C803        C  0.25140763  0.51802025  0.89112355    -0.12760
C804        C  0.21990677  0.51419560  0.87814206     0.00890
C805        C  0.19160813  0.51990425  0.89839351    -0.11290
C806        C  0.19433853  0.52812698  0.93141288     0.03380
C807        C  0.22580867  0.53309768  0.94333268    -0.10710
H808        H  0.27321901  0.51171894  0.87666890     0.08970
H809        H  0.16723866  0.51620446  0.88901239     0.06500
H810        H  0.22807937  0.53948838  0.96880621     0.06350
C811        C  0.01348228  0.62491117  0.77011124     0.03390
C812        C  0.00648032  0.65826927  0.77277755    -0.12760
C813        C  0.00340090  0.67133679  0.80414538     0.00890
C814        C  0.00803273  0.65073422  0.83261090    -0.11290
C815        C  0.01343306  0.61698199  0.83036203     0.03380
C816        C  0.01729384  0.60450501  0.79892992    -0.10710
H817        H  0.00090909  0.67312977  0.75074560     0.08970
H818        H  0.00461451  0.66026940  0.85697059     0.06500
H819        H  0.01953727  0.57811582  0.79701547     0.06350
C820        C  0.43062183  0.84093123  0.85754132     0.03390
C821        C  0.42409241  0.86122905  0.82949350    -0.12760
C822        C  0.43100127  0.85136608  0.79730174     0.00890
C823        C  0.44318942  0.81999997  0.79336505    -0.11290
C824        C  0.44890855  0.79881584  0.82112017     0.03380
C825        C  0.44255072  0.80954809  0.85318124    -0.10710
H826        H  0.41499204  0.88544944  0.83274274     0.08970
H827        H  0.44887201  0.81228005  0.76859281     0.06500
H828        H  0.44796216  0.79396341  0.87476826     0.06350
O829        O  0.02700200  0.91537375  0.51390632    -0.79870
O830        O  0.42735004  0.96217620  0.66958333    -0.81430
O831        O  0.03267354  0.93450827  0.62815096    -0.78450
O832        O  0.44136349  0.87855436  0.60059941    -0.76830
O833        O  0.39701529  0.89301957  0.57160982    -0.78620
O834        O  0.05342684  0.98815164  0.61586716    -0.79550
O835        O  0.45680581  0.91833190  0.65502451    -0.80880
O836        O  0.01692049  0.89331272  0.56755208    -0.81170
Eu837      Eu  0.48101470  0.92853621  0.59830448     2.39200
O838        O  0.42824544  0.94865387  0.59908252    -0.88680
O839        O  0.01651369  0.96489545  0.56194450    -0.92280
C840        C  0.03068713  0.89332215  0.53787611     1.02410
C841        C  0.43852017  0.93331977  0.67554396     1.02230
C842        C  0.05482913  0.95887118  0.63002766     1.02170
C843        C  0.41213774  0.87264904  0.59003357     1.00030
H844        H  0.48996298  0.98162710  0.64032957     0.29780
O845        O  0.48203381  0.98220539  0.61822673    -1.01070
H846        H  0.46030973  0.90719270  0.53734941     0.29810
O847        O  0.46097770  0.92944906  0.54474517    -1.03610
O848        O  0.39781543  0.55260638  0.61419236    -0.80830
O849        O  0.49682810  0.00478197  0.95765744    -0.80370
O850        O  0.01235606  0.54831802  0.63287591    -0.78810
O851        O  0.35788615  0.94640749  0.58582395    -0.82150
O852        O  0.41255671  0.91794349  0.49568412    -0.80000
O853        O  0.06689875  0.52025676  0.54238512    -0.78650
O854        O  0.48222675  0.58883030  0.52795789    -0.80170
O855        O  0.39265834  0.53298943  0.49965902    -0.82100
O856        O  0.02614185  0.57610289  0.55848937    -0.78840
O857        O  0.37128535  0.97937491  0.51129704    -0.81510
O858        O  0.45931002  0.53701088  0.65527932    -0.77250
O859        O  0.05310144  0.99014334  0.49839114    -0.77280
O860        O  0.46602924  0.92893493  0.97391650    -0.76920
O861        O  0.37228262  0.97556817  0.63021848    -0.80420
O862        O  0.40973371  0.57405963  0.56058961    -0.79850
O863        O  0.46546175  0.54694100  0.97238196    -0.78170
Eu864      Eu  0.42832245  0.00139157  0.61964031     2.39770
Eu865      Eu  0.49631392  0.96609273  0.50834784     2.39570
Eu866      Eu  0.01712176  0.51856232  0.58142639     2.38400
Eu867      Eu  0.40741549  0.94902998  0.54635295     2.39880
Eu868      Eu  0.44386014  0.53818871  0.52978650     2.39790
O869        O  0.44252876  0.98492237  0.50944021    -0.92590
O870        O  0.46365539  0.53790019  0.58339192    -0.91480
C871        C  0.39590727  0.57499354  0.59002789     1.02580
C872        C  0.48381865  0.53271323  0.95133637     1.01300
C873        C  0.48879922  0.55119052  0.65538562     1.00690
C874        C  0.35199775  0.95695294  0.61500264     1.02700
C875        C  0.43670588  0.91436696  0.97404359     1.01620
C876        C  0.07321089  0.00891603  0.51364286     1.00470
C877        C  0.01064737  0.59592924  0.53970961     1.00530
C878        C  0.37038075  0.50889620  0.49742929     1.03140
H879        H  0.01147601  0.53422102  0.51338356     0.30510
O880        O  0.49704840  0.51920130  0.52828932    -1.04750
H881        H  0.38566908  0.50990437  0.56686916     0.32560
O882        O  0.40783703  0.00247381  0.56612239    -1.07310
C883        C  0.41489949  0.86224088  0.73900113    -0.21050
C884        C  0.42779191  0.87450450  0.76767440    -0.09090
C885        C  0.44006261  0.90817236  0.76666829     0.29770
C886        C  0.44088980  0.92839203  0.73704690    -0.21050
C887        C  0.43015759  0.91522002  0.70802642    -0.09100
C888        C  0.41634310  0.88226339  0.70935775     0.29770
F889        F  0.40551907  0.86904996  0.68154867    -0.19630
H890        H  0.40481232  0.83668888  0.73921563     0.18140
H891        H  0.45214024  0.95357783  0.73617958     0.18150
F892        F  0.45379530  0.92086066  0.79337735    -0.19610
C893        C  0.40194629  0.87235519  0.90119414    -0.21050
C894        C  0.42905451  0.85471123  0.89071616    -0.09090
C895        C  0.45669107  0.85412077  0.91013530     0.29770
C896        C  0.45788826  0.87228543  0.93820619    -0.21050
C897        C  0.43170275  0.89140152  0.94763016    -0.09100
C898        C  0.40312845  0.89048486  0.92959265     0.29770
F899        F  0.37753427  0.90893471  0.93791511    -0.19630
H900        H  0.38040848  0.87314154  0.88660234     0.18140
H901        H  0.48006700  0.87249062  0.95194164     0.18150
F902        F  0.48378223  0.83827149  0.90056940    -0.19610
C903        C  0.47570601  0.60101452  0.73094179    -0.21050
C904        C  0.00828117  0.60900678  0.73888772    -0.09090
C905        C  0.03476197  0.59895501  0.71884381     0.29770
C906        C  0.02846995  0.58084722  0.69114015    -0.21050
C907        C  0.49566268  0.57200939  0.68353295    -0.09100
C908        C  0.46929366  0.58262250  0.70376331     0.29770
F909        F  0.43714692  0.57512959  0.69762143    -0.19630
H910        H  0.45507258  0.60830442  0.74650479     0.18140
H911        H  0.04923955  0.57301156  0.67619123     0.18150
F912        F  0.06653294  0.60624104  0.72635058    -0.19610
C913        C  0.47706785  0.59617869  0.87970659    -0.21050
C914        C  0.00663422  0.59385154  0.86042385    -0.09090
C915        C  0.02767226  0.56891609  0.86942979     0.29770
C916        C  0.01966882  0.54774141  0.89832523    -0.21050
C917        C  0.49055453  0.55115654  0.91833107    -0.09100
C918        C  0.46899498  0.57524502  0.90811444     0.29770
F919        F  0.43995176  0.57892510  0.92567929    -0.19630
H920        H  0.45986682  0.61435370  0.87261557     0.18140
H921        H  0.03670904  0.52951415  0.90561376     0.18150
F922        F  0.05631193  0.56579455  0.85101670    -0.19610
C923        C  0.48954043  0.76360728  0.79298086    -0.21050
C924        C  0.46288016  0.76617056  0.81655699    -0.09090
C925        C  0.44975143  0.73733209  0.83562592     0.29770
C926        C  0.46319764  0.70688157  0.83138423    -0.21050
C927        C  0.48998721  0.70430320  0.80805022    -0.09100
C928        C  0.00295088  0.73299545  0.78865999     0.29770
F929        F  0.02904859  0.73162081  0.76617013    -0.19630
H930        H  0.50035049  0.78547309  0.77819130     0.18140
H931        H  0.45219627  0.68502286  0.84607464     0.18150
F932        F  0.42323831  0.73830638  0.85770512    -0.19610
C933        C  0.13588551  0.54164448  0.94480754    -0.21050
C934        C  0.16443710  0.52699369  0.95470438    -0.09090
C935        C  0.16329708  0.50878343  0.98595180     0.29770
C936        C  0.13398292  0.00497822  0.50640483    -0.21050
C937        C  0.10531324  0.51851452  0.99572477    -0.09100
C938        C  0.10645027  0.53716289  0.96497928     0.29770
F939        F  0.07869231  0.54997462  0.95396108    -0.19630
H940        H  0.13611153  0.55569864  0.92097307     0.18140
H941        H  0.13310944  0.98974413  0.52962107     0.18150
F942        F  0.18967524  0.99250795  0.99567064    -0.19610
C943        C  0.34307438  0.53734271  0.94994663    -0.21050
C944        C  0.34112229  0.51484414  0.97830858    -0.09090
C945        C  0.31078274  0.49664997  0.98796335     0.29770
C946        C  0.28332777  0.50052661  0.96952803    -0.21050
C947        C  0.28507598  0.52276390  0.94120198    -0.09100
C948        C  0.31520768  0.54115241  0.93128302     0.29770
F949        F  0.31744468  0.56312876  0.90417428    -0.19630
H950        H  0.36620500  0.55152714  0.94201470     0.18140
H951        H  0.26032430  0.98613329  0.97758832     0.18150
F952        F  0.30731066  0.97547670  0.51574740    -0.19610
C953        C  0.13913808  0.97390212  0.66404130    -0.21050
C954        C  0.13968046  0.94730203  0.68787008    -0.09090
C955        C  0.11240500  0.92367344  0.69269273     0.29770
C956        C  0.08474699  0.92699480  0.67361431    -0.21050
C957        C  0.08417372  0.95393307  0.64964627    -0.09100
C958        C  0.11200058  0.97726461  0.64504706     0.29770
F959        F  0.11358170  0.00321917  0.62168909    -0.19630
H960        H  0.16027701  0.99199233  0.65974924     0.18140
H961        H  0.06380286  0.90870769  0.67770994     0.18150
F962        F  0.11281094  0.89729010  0.71525124    -0.19610
C963        C  0.28938868  0.92997448  0.68584719    -0.21050
C964        C  0.26033007  0.94182550  0.67372807    -0.09090
C965        C  0.26107108  0.95488654  0.64026094     0.29770
C966        C  0.29060524  0.95721135  0.62011130    -0.21050
C967        C  0.31988470  0.94739403  0.63314407    -0.09100
C968        C  0.31898283  0.93303625  0.66590149     0.29770
F969        F  0.34708971  0.92313012  0.67898049    -0.19630
H970        H  0.28947465  0.91940905  0.71121750     0.18140
H971        H  0.29112217  0.96890187  0.59511039     0.18150
F972        F  0.23411176  0.96800562  0.62772037    -0.19610
C973        C  0.18845717  0.96291566  0.80918814    -0.21050
C974        C  0.20918053  0.97580506  0.78152432    -0.09090
C975        C  0.23336277  0.00177489  0.78579817     0.29770
C976        C  0.23680861  0.51407026  0.81717032    -0.21050
C977        C  0.21609357  0.50106411  0.84483679    -0.09100
C978        C  0.19187692  0.97518495  0.84047740     0.29770
F979        F  0.17219818  0.96081728  0.86669309    -0.19630
H980        H  0.16995904  0.94270494  0.80672472     0.18140
H981        H  0.25540100  0.53415926  0.81976446     0.18150
F982        F  0.25308102  0.51597278  0.75953068    -0.19610
C983        C  0.34689922  0.60259588  0.61464873    -0.21050
C984        C  0.37714631  0.60451006  0.59523533    -0.09090
C985        C  0.38848253  0.63485246  0.57771864     0.29770
C986        C  0.36968538  0.66218601  0.57876004    -0.21050
C987        C  0.33929172  0.66042136  0.59754665    -0.09100
C988        C  0.32790186  0.63044897  0.61571109     0.29770
F989        F  0.29890322  0.62831333  0.63468620    -0.19630
H990        H  0.33764407  0.57943910  0.62818432     0.18140
H991        H  0.37901779  0.68509314  0.56474630     0.18150
F992        F  0.41799865  0.63823838  0.55948032    -0.19610
C993        C  0.38557518  0.78152147  0.59262278    -0.21120
C994        C  0.35149823  0.78166955  0.60233451    -0.09090
C995        C  0.33927199  0.81130549  0.61267645     0.29770
C996        C  0.36005905  0.84047879  0.61073637    -0.21050
C997        C  0.39350319  0.84056190  0.59923449    -0.09100
C998        C  0.40650930  0.81065834  0.59139354     0.29770
F999        F  0.43864900  0.81017387  0.57987011    -0.19630
H1000       H  0.39577458  0.75925601  0.58419300     0.18140
H1001       H  0.34973474  0.86344292  0.61710381     0.18150
F1002       F  0.30712701  0.81232565  0.62398850    -0.19610
C1003       C  0.02079366  0.65594691  0.54823460    -0.21050
C1004       C  0.02795929  0.62856618  0.53032946    -0.09090
C1005       C  0.05536129  0.63110567  0.50700543     0.29770
C1006       C  0.07597025  0.66046888  0.00236781    -0.21050
C1007       C  0.06948345  0.68767097  0.52096111    -0.09100
C1008       C  0.04139215  0.68535899  0.54365843     0.29770
F1009       F  0.03517698  0.71068790  0.56305034    -0.19630
H1010       H  0.00023678  0.65397049  0.56691210     0.18140
H1011       H  0.09747806  0.66172896  0.98488057     0.18150
F1012       F  0.06285599  0.60467727  0.98969320    -0.19610
C1013       C  0.05462508  0.85304288  0.99980451    -0.21050
C1014       C  0.05206947  0.86582896  0.53136659    -0.09090
C1015       C  0.06893681  0.85096093  0.55734434     0.29770
C1016       C  0.08705465  0.82345854  0.55205052    -0.21050
C1017       C  0.08833310  0.80977862  0.52106290    -0.09100
C1018       C  0.07226305  0.82492262  0.99476220     0.29770
F1019       F  0.07310738  0.81211369  0.96450402    -0.19630
H1020       H  0.04185490  0.86396577  0.97944042     0.18140
H1021       H  0.09896476  0.81186100  0.57268285     0.18150
F1022       F  0.06761880  0.86270756  0.58810411    -0.19610
C1023       C  0.19246394  0.75591130  0.56737218    -0.21050
C1024       C  0.18200433  0.73796550  0.54079849    -0.09090
C1025       C  0.20321157  0.71529439  0.52739239     0.29770
C1026       C  0.23407587  0.71083624  0.54049152    -0.21050
C1027       C  0.24445604  0.72891067  0.56709895    -0.09100
C1028       C  0.22313975  0.75148442  0.58041516     0.29770
F1029       F  0.23151100  0.76870132  0.60678998    -0.19630
H1030       H  0.17641990  0.77290786  0.57875047     0.18140
H1031       H  0.25013491  0.69368001  0.52941398     0.18150
F1032       F  0.19445265  0.69797970  0.50120359    -0.19610
C1033       C  0.60293679  0.27748809  0.51821977     0.03390
C1034       C  0.63608162  0.27381915  0.02530273    -0.12760
C1035       C  0.64830685  0.24203907  0.02879109     0.00890
C1036       C  0.62669162  0.21393889  0.02507105    -0.11290
C1037       C  0.59330429  0.21735568  0.51870914     0.03380
C1038       C  0.58189378  0.24920740  0.51445622    -0.10710
H1039       H  0.65196985  0.29569819  0.02927649     0.08970
H1040       H  0.63508330  0.18928462  0.02974357     0.06500
H1041       H  0.55596063  0.25189435  0.51045584     0.06350
C1042       C  0.82170595  0.19123535  0.09867180     0.03390
C1043       C  0.79023068  0.19373821  0.08612305    -0.12760
C1044       C  0.77770155  0.22521590  0.08040519     0.00890
C1045       C  0.79777008  0.25386752  0.08618050    -0.11290
C1046       C  0.82886528  0.25150932  0.09948587     0.03380
C1047       C  0.83985927  0.22000899  0.10676192    -0.10710
H1048       H  0.77615868  0.17150031  0.07986356     0.08970
H1049       H  0.78965068  0.27809676  0.07889720     0.06500
H1050       H  0.86388368  0.21778919  0.11681148     0.06350
C1051       C  0.67051207  0.44409816  0.20491670     0.03390
C1052       C  0.67383518  0.45620862  0.23642529    -0.12760
C1053       C  0.70546795  0.46174597  0.24861875     0.00890
C1054       C  0.73359991  0.45510984  0.22861416    -0.11290
C1055       C  0.73048155  0.44344509  0.19677371     0.03380
C1056       C  0.69872602  0.43678600  0.18583425    -0.10710
H1057       H  0.65206372  0.46322116  0.25046681     0.08970
H1058       H  0.75804390  0.46009802  0.23741346     0.06500
H1059       H  0.69585959  0.42795981  0.16132720     0.06350
C1060       C  0.75429328  0.02688064  0.42398977     0.03390
C1061       C  0.75140759  0.01802023  0.39112356    -0.12760
C1062       C  0.71990673  0.01419559  0.37814206     0.00890
C1063       C  0.69160809  0.01990423  0.39839350    -0.11290
C1064       C  0.69433849  0.02812696  0.43141287     0.03380
C1065       C  0.72580862  0.03309766  0.44333268    -0.10710
H1066       H  0.77321898  0.01171892  0.37666891     0.08970
H1067       H  0.66723863  0.01620445  0.38901238     0.06500
H1068       H  0.72807932  0.03948836  0.46880621     0.06350
C1069       C  0.51348230  0.12491119  0.27011127     0.03390
C1070       C  0.50648034  0.15826928  0.27277757    -0.12760
C1071       C  0.50340090  0.17133680  0.30414540     0.00890
C1072       C  0.50803272  0.15073424  0.33261092    -0.11290
C1073       C  0.51343306  0.11698200  0.33036206     0.03380
C1074       C  0.51729384  0.10450502  0.29892995    -0.10710
H1075       H  0.50090912  0.17312978  0.25074561     0.08970
H1076       H  0.50461448  0.16026942  0.35697061     0.06500
H1077       H  0.51953727  0.07811583  0.29701550     0.06350
C1078       C  0.93062180  0.34093123  0.35754130     0.03390
C1079       C  0.92409239  0.36122906  0.32949348    -0.12760
C1080       C  0.93100126  0.35136609  0.29730172     0.00890
C1081       C  0.94318942  0.31999999  0.29336503    -0.11290
C1082       C  0.94890853  0.29881585  0.32112016     0.03380
C1083       C  0.94255069  0.30954809  0.35318122    -0.10710
H1084       H  0.91499201  0.38544944  0.33274272     0.08970
H1085       H  0.94887202  0.31228007  0.26859279     0.06500
H1086       H  0.94796212  0.29396342  0.37476824     0.06350
O1087       O  0.52700204  0.41537380  0.01390632    -0.79870
O1088       O  0.92735007  0.46217624  0.16958332    -0.81430
O1089       O  0.53267358  0.43450831  0.12815097    -0.78450
O1090       O  0.94136351  0.37855441  0.10059940    -0.76830
O1091       O  0.89701531  0.39301963  0.07160981    -0.78620
O1092       O  0.55342689  0.48815167  0.11586717    -0.79550
O1093       O  0.95680582  0.41833194  0.15502451    -0.80880
O1094       O  0.51692053  0.39331277  0.06755208    -0.81170
Eu1095     Eu  0.98101473  0.42853625  0.09830448     2.39200
O1096       O  0.92824547  0.44865391  0.09908252    -0.88680
O1097       O  0.51651374  0.46489550  0.06194450    -0.92280
C1098       C  0.53068716  0.39332220  0.03787611     1.02410
C1099       C  0.93852019  0.43331980  0.17554396     1.02230
C1100       C  0.55482917  0.45887121  0.13002767     1.02170
C1101       C  0.91213775  0.37264910  0.09003357     1.00030
H1102       H  0.98996301  0.48162713  0.14032957     0.29780
O1103       O  0.98203384  0.48220543  0.11822674    -1.01070
H1104       H  0.96030975  0.40719274  0.03734941     0.29810
O1105       O  0.96097772  0.42944910  0.04474516    -1.03610
O1106       O  0.89781549  0.05260645  0.11419233    -0.80830
O1107       O  0.99682806  0.50478195  0.45765745    -0.80370
O1108       O  0.51235611  0.04831808  0.13287591    -0.78810
O1109       O  0.85788618  0.44640756  0.08582394    -0.82150
O1110       O  0.91255673  0.41794354  0.99568412    -0.80000
O1111       O  0.56689880  0.02025682  0.04238511    -0.78650
O1112       O  0.98222682  0.08883037  0.02795787    -0.80170
O1113       O  0.89265840  0.03298947  0.99965900    -0.82100
O1114       O  0.52614189  0.07610295  0.05848936    -0.78840
O1115       O  0.87128540  0.47937498  0.01129703    -0.81510
O1116       O  0.95931008  0.03701096  0.15527931    -0.77250
O1117       O  0.55310149  0.49014339  0.99839115    -0.77280
O1118       O  0.96602918  0.42893492  0.47391649    -0.76920
O1119       O  0.87228266  0.47556823  0.13021848    -0.80420
O1120       O  0.90973376  0.07405969  0.06058959    -0.79850
O1121       O  0.96546168  0.04694093  0.47238197    -0.78170
Eu1122     Eu  0.92832249  0.50139161  0.11964031     2.39770
Eu1123     Eu  0.99631396  0.46609277  0.00834784     2.39570
Eu1124     Eu  0.51712181  0.01856239  0.08142639     2.38400
Eu1125     Eu  0.90741553  0.44903004  0.04635295     2.39880
Eu1126     Eu  0.94386021  0.03818878  0.02978649     2.39790
O1127       O  0.94252880  0.48492243  0.00944022    -0.92590
O1128       O  0.96365545  0.03790027  0.08339191    -0.91480
C1129       C  0.89590732  0.07499361  0.09002787     1.02580
C1130       C  0.98381860  0.03271319  0.45133638     1.01300
C1131       C  0.98879927  0.05119060  0.15538562     1.00690
C1132       C  0.85199779  0.45695301  0.11500263     1.02700
C1133       C  0.93670581  0.41436695  0.47404357     1.01620
C1134       C  0.57321095  0.50891607  0.01364286     1.00470
C1135       C  0.51064740  0.09592929  0.03970959     1.00530
C1136       C  0.87038082  0.00889624  0.99742929     1.03140
H1137       H  0.51147606  0.03422106  0.01338355     0.30510
O1138       O  0.99704846  0.01920136  0.02828931    -1.04750
H1139       H  0.88566914  0.00990443  0.06686915     0.32560
O1140       O  0.90783707  0.50247388  0.06612238    -1.07310
C1141       C  0.91489950  0.36224090  0.23900110    -0.21050
C1142       C  0.92779191  0.37450451  0.26767439    -0.09090
C1143       C  0.94006259  0.40817238  0.26666828     0.29770
C1144       C  0.94088980  0.42839206  0.23704690    -0.21050
C1145       C  0.93015760  0.41522005  0.20802641    -0.09100
C1146       C  0.91634311  0.38226342  0.20935773     0.29770
F1147       F  0.90551910  0.36904999  0.18154864    -0.19630
H1148       H  0.90481233  0.33668890  0.23921559     0.18140
H1149       H  0.95214022  0.45357786  0.23617959     0.18150
F1150       F  0.95379527  0.42086068  0.29337735    -0.19610
C1151       C  0.90194624  0.37235518  0.40119411    -0.21050
C1152       C  0.92905446  0.35471123  0.39071614    -0.09090
C1153       C  0.95669102  0.35412076  0.41013529     0.29770
C1154       C  0.95788821  0.37228542  0.43820618    -0.21050
C1155       C  0.93170269  0.39140150  0.44763014    -0.09100
C1156       C  0.90312840  0.39048485  0.42959262     0.29770
F1157       F  0.87753422  0.40893470  0.43791509    -0.19630
H1158       H  0.88040844  0.37314154  0.38660231     0.18140
H1159       H  0.98006694  0.37249061  0.45194163     0.18150
F1160       F  0.98378219  0.33827149  0.40056939    -0.19610
C1161       C  0.97570605  0.10101458  0.23094180    -0.21050
C1162       C  0.50828120  0.10900679  0.23888774    -0.09090
C1163       C  0.53476200  0.09895500  0.21884385     0.29770
C1164       C  0.52846999  0.08084722  0.19114018    -0.21050
C1165       C  0.99566273  0.07200946  0.18353296    -0.09100
C1166       C  0.96929371  0.08262258  0.20376330     0.29770
F1167       F  0.93714697  0.07512970  0.19762140    -0.19630
H1168       H  0.95507262  0.10830449  0.24650479     0.18140
H1169       H  0.54923959  0.07301155  0.17619128     0.18150
F1170       F  0.56653297  0.10624100  0.22635066    -0.19610
C1171       C  0.97706786  0.09617871  0.37970664    -0.21050
C1172       C  0.50663421  0.09385155  0.36042388    -0.09090
C1173       C  0.52767224  0.06891608  0.36942981     0.29770
C1174       C  0.51966879  0.04774140  0.39832524    -0.21050
C1175       C  0.99055450  0.05115652  0.41833110    -0.09100
C1176       C  0.96899497  0.07524503  0.40811448     0.29770
F1177       F  0.93995176  0.07892512  0.42567934    -0.19630
H1178       H  0.95986684  0.11435374  0.37261564     0.18140
H1179       H  0.53670900  0.02951412  0.40561376     0.18150
F1180       F  0.55631191  0.06579454  0.35101672    -0.19610
C1181       C  0.98954043  0.26360729  0.29298087    -0.21050
C1182       C  0.96288015  0.26617057  0.31655698    -0.09090
C1183       C  0.94975142  0.23733210  0.33562591     0.29770
C1184       C  0.96319764  0.20688158  0.33138424    -0.21050
C1185       C  0.98998722  0.20430322  0.30805024    -0.09100
C1186       C  0.50295089  0.23299546  0.28865999     0.29770
F1187       F  0.52904862  0.23162082  0.26617016    -0.19630
H1188       H  0.00035050  0.28547310  0.27819130     0.18140
H1189       H  0.95219626  0.18502287  0.34607465     0.18150
F1190       F  0.92323828  0.23830639  0.35770510    -0.19610
C1191       C  0.63588546  0.04164447  0.44480753    -0.21050
C1192       C  0.66443706  0.02699367  0.45470437    -0.09090
C1193       C  0.66329703  0.00878341  0.48595179     0.29770
C1194       C  0.63398298  0.50497825  0.00640483    -0.21050
C1195       C  0.60531319  0.01851450  0.49572476    -0.09100
C1196       C  0.60645022  0.03716287  0.46497928     0.29770
F1197       F  0.57869226  0.04997460  0.45396107    -0.19630
H1198       H  0.63611149  0.05569861  0.42097306     0.18140
H1199       H  0.63310950  0.48974417  0.02962108     0.18150
F1200       F  0.68967519  0.49250791  0.49567065    -0.19610
C1201       C  0.84307433  0.03734262  0.44994664    -0.21050
C1202       C  0.84112223  0.01484405  0.47830858    -0.09090
C1203       C  0.81078267  0.99664989  0.48796336     0.29770
C1204       C  0.78332770  0.00052656  0.46952804    -0.21050
C1205       C  0.78507593  0.02276385  0.44120200    -0.09100
C1206       C  0.81520763  0.04115235  0.43128303     0.29770
F1207       F  0.81744465  0.06312870  0.40417430    -0.19630
H1208       H  0.86620496  0.05152704  0.44201470     0.18140
H1209       H  0.76032424  0.48613329  0.47758834     0.18150
F1210       F  0.80731072  0.47547674  0.01574737    -0.19610
C1211       C  0.63913812  0.47390213  0.16404134    -0.21050
C1212       C  0.63968050  0.44730203  0.18787009    -0.09090
C1213       C  0.61240503  0.42367343  0.19269273     0.29770
C1214       C  0.58474703  0.42699481  0.17361430    -0.21050
C1215       C  0.58417375  0.45393310  0.14964629    -0.09100
C1216       C  0.61200062  0.47726464  0.14504710     0.29770
F1217       F  0.61358174  0.50321922  0.12168915    -0.19630
H1218       H  0.66027704  0.49199235  0.15974929     0.18140
H1219       H  0.56380289  0.40870770  0.17770992     0.18150
F1220       F  0.61281097  0.39729007  0.21525121    -0.19610
C1221       C  0.78938872  0.42997452  0.18584719    -0.21050
C1222       C  0.76033011  0.44182553  0.17372808    -0.09090
C1223       C  0.76107111  0.45488658  0.14026095     0.29770
C1224       C  0.79060527  0.45721140  0.12011131    -0.21050
C1225       C  0.81988474  0.44739409  0.13314407    -0.09100
C1226       C  0.81898287  0.43303630  0.16590149     0.29770
F1227       F  0.84708975  0.42313018  0.17898048    -0.19630
H1228       H  0.78947470  0.41940908  0.21121750     0.18140
H1229       H  0.79112219  0.46890192  0.09511039     0.18150
F1230       F  0.73411178  0.46800565  0.12772038    -0.19610
C1231       C  0.68845718  0.46291563  0.30918815    -0.21050
C1232       C  0.70918054  0.47580504  0.28152434    -0.09090
C1233       C  0.73336276  0.50177488  0.28579819     0.29770
C1234       C  0.73680861  0.01407026  0.31717033    -0.21050
C1235       C  0.71609355  0.00106410  0.34483679    -0.09100
C1236       C  0.69187692  0.47518493  0.34047741     0.29770
F1237       F  0.67219817  0.46081726  0.36669310    -0.19630
H1238       H  0.66995906  0.44270490  0.30672473     0.18140
H1239       H  0.75540099  0.03415926  0.31976447     0.18150
F1240       F  0.75308105  0.01597277  0.25953069    -0.19610
C1241       C  0.84689926  0.10259594  0.11464871    -0.21050
C1242       C  0.87714635  0.10451013  0.09523530    -0.09090
C1243       C  0.88848255  0.13485252  0.07771860     0.29770
C1244       C  0.86968540  0.16218607  0.07876001    -0.21050
C1245       C  0.83929175  0.16042141  0.09754663    -0.09100
C1246       C  0.82790190  0.13044903  0.11571107     0.29770
F1247       F  0.79890327  0.12831338  0.13468619    -0.19630
H1248       H  0.83764413  0.07943916  0.12818430     0.18140
H1249       H  0.87901781  0.18509320  0.06474626     0.18150
F1250       F  0.91799868  0.13823845  0.05948027    -0.19610
C1251       C  0.88557520  0.28152152  0.09262277    -0.21120
C1252       C  0.85149825  0.28166961  0.10233452    -0.09090
C1253       C  0.83927201  0.31130554  0.11267645     0.29770
C1254       C  0.86005907  0.34047885  0.11073637    -0.21050
C1255       C  0.89350320  0.34056196  0.09923448    -0.09100
C1256       C  0.90650932  0.31065840  0.09139353     0.29770
F1257       F  0.93864901  0.31017393  0.07987009    -0.19630
H1258       H  0.89577459  0.25925606  0.08419299     0.18140
H1259       H  0.84973475  0.36344297  0.11710381     0.18150
F1260       F  0.80712703  0.31232569  0.12398852    -0.19610
C1261       C  0.52079370  0.15594696  0.04823459    -0.21050
C1262       C  0.52795932  0.12856623  0.03032944    -0.09090
C1263       C  0.55536131  0.13110573  0.00700539     0.29770
C1264       C  0.57597008  0.16046885  0.50236766    -0.21050
C1265       C  0.56948348  0.18767103  0.02096109    -0.09100
C1266       C  0.54139218  0.18535903  0.04365843     0.29770
F1267       F  0.53517703  0.21068793  0.06305035    -0.19630
H1268       H  0.50023682  0.15397053  0.06691210     0.18140
H1269       H  0.59747786  0.16172893  0.48488038     0.18150
F1270       F  0.56285578  0.10467724  0.48969306    -0.19610
C1271       C  0.55462499  0.35304283  0.49980445    -0.21050
C1272       C  0.55206950  0.36582901  0.03136660    -0.09090
C1273       C  0.56893683  0.35096098  0.05734434     0.29770
C1274       C  0.58705467  0.32345858  0.05205053    -0.21050
C1275       C  0.58833312  0.30977867  0.02106290    -0.09100
C1276       C  0.57226296  0.32492258  0.49476212     0.29770
F1277       F  0.57310729  0.31211366  0.46450392    -0.19630
H1278       H  0.54185481  0.36396573  0.47944036     0.18140
H1279       H  0.59896478  0.31186105  0.07268285     0.18150
F1280       F  0.56761881  0.36270760  0.08810411    -0.19610
C1281       C  0.69246395  0.25591134  0.06737219    -0.21050
C1282       C  0.68200435  0.23796555  0.04079849    -0.09090
C1283       C  0.70321159  0.21529445  0.02739239     0.29770
C1284       C  0.73407590  0.21083630  0.04049151    -0.21050
C1285       C  0.74445605  0.22891072  0.06709895    -0.09100
C1286       C  0.72313977  0.25148446  0.08041517     0.29770
F1287       F  0.73151101  0.26870136  0.10679000    -0.19630
H1288       H  0.67641992  0.27290790  0.07875048     0.18140
H1289       H  0.75013494  0.19368007  0.02941397     0.18150
F1290       F  0.69445268  0.19797977  0.00120357    -0.19610
C1291       C  0.60293687  0.27748816  0.01821989     0.03390
C1292       C  0.63608152  0.27381907  0.52530263    -0.12760
C1293       C  0.64830673  0.24203897  0.52879098     0.00890
C1294       C  0.62669149  0.21393881  0.52507092    -0.11290
C1295       C  0.59330441  0.21735573  0.01870929     0.03380
C1296       C  0.58189388  0.24920745  0.01445636    -0.10710
H1297       H  0.65196976  0.29569809  0.52927641     0.08970
H1298       H  0.63508315  0.18928453  0.52974344     0.06500
H1299       H  0.55596072  0.25189438  0.01045599     0.06350
C1300       C  0.82170584  0.19123526  0.59867171     0.03390
C1301       C  0.79023056  0.19373810  0.58612299    -0.12760
C1302       C  0.77770142  0.22521578  0.58040509     0.00890
C1303       C  0.79776995  0.25386742  0.58618036    -0.11290
C1304       C  0.82886517  0.25150924  0.59948572     0.03380
C1305       C  0.83985916  0.22000892  0.60676179    -0.10710
H1306       H  0.77615856  0.17150019  0.57986352     0.08970
H1307       H  0.78965054  0.27809665  0.57889705     0.06500
H1308       H  0.86388358  0.21778913  0.61681134     0.06350
C1309       C  0.67051201  0.44409814  0.70491669     0.03390
C1310       C  0.67383512  0.45620863  0.73642528    -0.12760
C1311       C  0.70546789  0.46174599  0.74861873     0.00890
C1312       C  0.73359985  0.45510986  0.72861413    -0.11290
C1313       C  0.73048149  0.44344509  0.69677370     0.03380
C1314       C  0.69872596  0.43678599  0.68583425    -0.10710
H1315       H  0.65206366  0.46322116  0.75046680     0.08970
H1316       H  0.75804384  0.46009804  0.73741344     0.06500
H1317       H  0.69585953  0.42795977  0.66132721     0.06350
C1318       C  0.75429333  0.02688067  0.92398977     0.03390
C1319       C  0.75140764  0.01802024  0.89112356    -0.12760
C1320       C  0.71990678  0.01419559  0.87814207     0.00890
C1321       C  0.69160814  0.01990424  0.89839351    -0.11290
C1322       C  0.69433854  0.02812697  0.93141288     0.03380
C1323       C  0.72580867  0.03309768  0.94333268    -0.10710
H1324       H  0.77321903  0.01171894  0.87666891     0.08970
H1325       H  0.66723867  0.01620445  0.88901239     0.06500
H1326       H  0.72807937  0.03948839  0.96880621     0.06350
C1327       C  0.51348228  0.12491119  0.77011124     0.03390
C1328       C  0.50648032  0.15826928  0.77277755    -0.12760
C1329       C  0.50340090  0.17133681  0.80414539     0.00890
C1330       C  0.50803273  0.15073424  0.83261090    -0.11290
C1331       C  0.51343306  0.11698200  0.83036203     0.03380
C1332       C  0.51729384  0.10450503  0.79892992    -0.10710
H1333       H  0.50090909  0.17312979  0.75074560     0.08970
H1334       H  0.50461450  0.16026941  0.85697059     0.06500
H1335       H  0.51953726  0.07811584  0.79701547     0.06350
C1336       C  0.93062184  0.34093124  0.85754133     0.03390
C1337       C  0.92409242  0.36122906  0.82949351    -0.12760
C1338       C  0.93100127  0.35136609  0.79730174     0.00890
C1339       C  0.94318943  0.31999998  0.79336506    -0.11290
C1340       C  0.94890855  0.29881585  0.82112018     0.03380
C1341       C  0.94255073  0.30954810  0.85318124    -0.10710
H1342       H  0.91499205  0.38544945  0.83274274     0.08970
H1343       H  0.94887201  0.31228005  0.76859281     0.06500
H1344       H  0.94796216  0.29396342  0.87476826     0.06350
O1345       O  0.52700196  0.41537373  0.51390630    -0.79870
O1346       O  0.92735004  0.46217619  0.66958333    -0.81430
O1347       O  0.53267349  0.43450818  0.62815096    -0.78450
O1348       O  0.94136341  0.37855433  0.60059934    -0.76830
O1349       O  0.89701523  0.39301958  0.57160974    -0.78620
O1350       O  0.55342680  0.48815154  0.61586718    -0.79550
O1351       O  0.95680576  0.41833187  0.65502450    -0.80880
O1352       O  0.51692043  0.39331267  0.56755204    -0.81170
Eu1353     Eu  0.98101465  0.42853617  0.59830446     2.39200
O1354       O  0.92824540  0.44865386  0.59908251    -0.88680
O1355       O  0.51651365  0.46489540  0.56194450    -0.92280
C1356       C  0.53068707  0.39332212  0.53787608     1.02410
C1357       C  0.93852015  0.43331974  0.67554396     1.02230
C1358       C  0.55482909  0.45887108  0.63002767     1.02170
C1359       C  0.91213766  0.37264904  0.59003348     1.00030
H1360       H  0.98996296  0.48162705  0.64032956     0.29780
O1361       O  0.98203379  0.48220535  0.61822673    -1.01070
H1362       H  0.96030968  0.40719271  0.53734938     0.29810
O1363       O  0.96097766  0.42944907  0.54474514    -1.03610
O1364       O  0.89781540  0.05260637  0.61419234    -0.80830
O1365       O  0.99682810  0.50478196  0.95765745    -0.80370
O1366       O  0.51235606  0.04831807  0.63287590    -0.78810
O1367       O  0.85788612  0.44640753  0.58582394    -0.82150
O1368       O  0.91255667  0.41794353  0.49568409    -0.80000
O1369       O  0.56689875  0.02025682  0.54238511    -0.78650
O1370       O  0.98222666  0.08883030  0.52795783    -0.80170
O1371       O  0.89265831  0.03298936  0.49965901    -0.82100
O1372       O  0.52614180  0.07610293  0.55848933    -0.78840
O1373       O  0.87128535  0.47937497  0.51129703    -0.81510
O1374       O  0.95931002  0.03701092  0.65527931    -0.77250
O1375       O  0.55310142  0.49014331  0.49839115    -0.77280
O1376       O  0.96602924  0.42893493  0.97391652    -0.76920
O1377       O  0.87228261  0.47556819  0.63021848    -0.80420
O1378       O  0.90973365  0.07405959  0.56058958    -0.79850
O1379       O  0.96546177  0.04694100  0.97238196    -0.78170
Eu1380     Eu  0.92832244  0.50139156  0.61964031     2.39770
Eu1381     Eu  0.99631389  0.46609274  0.50834783     2.39570
Eu1382     Eu  0.51712176  0.01856237  0.58142638     2.38400
Eu1383     Eu  0.90741547  0.44903001  0.54635294     2.39880
Eu1384     Eu  0.94386011  0.03818868  0.52978649     2.39790
O1385       O  0.94252874  0.48492241  0.50944021    -0.92590
O1386       O  0.96365537  0.03790021  0.58339190    -0.91480
C1387       C  0.89590722  0.07499352  0.59002786     1.02580
C1388       C  0.98381866  0.03271324  0.95133637     1.01300
C1389       C  0.98879921  0.05119057  0.65538561     1.00690
C1390       C  0.85199773  0.45695297  0.61500263     1.02700
C1391       C  0.93670587  0.41436695  0.97404360     1.01620
C1392       C  0.57321089  0.50891598  0.51364287     1.00470
C1393       C  0.51064730  0.09592925  0.53970956     1.00530
C1394       C  0.87038074  0.00889612  0.49742929     1.03140
H1395       H  0.51147600  0.03422102  0.51338354     0.30510
O1396       O  0.99704838  0.01920131  0.52828930    -1.04750
H1397       H  0.88566907  0.00990432  0.56686916     0.32560
O1398       O  0.90783703  0.50247384  0.56612239    -1.07310
C1399       C  0.91489947  0.36224088  0.73900114    -0.21050
C1400       C  0.92779191  0.37450450  0.76767441    -0.09090
C1401       C  0.94006261  0.40817236  0.76666828     0.29770
C1402       C  0.94088980  0.42839202  0.73704689    -0.21050
C1403       C  0.93015758  0.41522001  0.70802642    -0.09100
C1404       C  0.91634307  0.38226338  0.70935776     0.29770
F1405       F  0.90551902  0.36904994  0.68154869    -0.19630
H1406       H  0.90481229  0.33668888  0.73921565     0.18140
H1407       H  0.95214024  0.45357782  0.73617956     0.18150
F1408       F  0.95379531  0.42086066  0.79337733    -0.19610
C1409       C  0.90194630  0.37235519  0.90119414    -0.21050
C1410       C  0.92905451  0.35471124  0.89071616    -0.09090
C1411       C  0.95669106  0.35412076  0.91013532     0.29770
C1412       C  0.95788826  0.37228542  0.93820621    -0.21050
C1413       C  0.93170275  0.39140151  0.94763017    -0.09100
C1414       C  0.90312846  0.39048486  0.92959265     0.29770
F1415       F  0.87753428  0.40893472  0.93791511    -0.19630
H1416       H  0.88040849  0.37314156  0.88660234     0.18140
H1417       H  0.98006700  0.37249060  0.95194166     0.18150
F1418       F  0.98378223  0.33827148  0.90056942    -0.19610
C1419       C  0.97570601  0.10101456  0.73094179    -0.21050
C1420       C  0.50828117  0.10900680  0.73888772    -0.09090
C1421       C  0.53476197  0.09895501  0.71884382     0.29770
C1422       C  0.52846994  0.08084723  0.69114015    -0.21050
C1423       C  0.99566268  0.07200943  0.68353294    -0.09100
C1424       C  0.96929366  0.08262255  0.70376330     0.29770
F1425       F  0.93714692  0.07512964  0.69762142    -0.19630
H1426       H  0.95507258  0.10830446  0.74650479     0.18140
H1427       H  0.54923954  0.07301156  0.67619124     0.18150
F1428       F  0.56653294  0.10624103  0.72635060    -0.19610
C1429       C  0.97706787  0.09617869  0.87970659    -0.21050
C1430       C  0.50663422  0.09385155  0.86042385    -0.09090
C1431       C  0.52767227  0.06891610  0.86942979     0.29770
C1432       C  0.51966882  0.04774143  0.89832523    -0.21050
C1433       C  0.99055455  0.05115654  0.91833108    -0.09100
C1434       C  0.96899499  0.07524502  0.90811445     0.29770
F1435       F  0.93995178  0.07892509  0.92567929    -0.19630
H1436       H  0.95986684  0.11435370  0.87261558     0.18140
H1437       H  0.53670904  0.02951417  0.90561376     0.18150
F1438       F  0.55631194  0.06579457  0.85101670    -0.19610
C1439       C  0.98954043  0.26360729  0.79298087    -0.21050
C1440       C  0.96288017  0.26617057  0.81655700    -0.09090
C1441       C  0.94975144  0.23733210  0.83562593     0.29770
C1442       C  0.96319765  0.20688158  0.83138424    -0.21050
C1443       C  0.98998722  0.20430321  0.80805022    -0.09100
C1444       C  0.50295088  0.23299546  0.78866000     0.29770
F1445       F  0.52904860  0.23162083  0.76617014    -0.19630
H1446       H  0.00035050  0.28547310  0.77819130     0.18140
H1447       H  0.95219628  0.18502287  0.84607465     0.18150
F1448       F  0.92323831  0.23830639  0.85770513    -0.19610
C1449       C  0.63588551  0.04164448  0.94480754    -0.21050
C1450       C  0.66443711  0.02699368  0.95470438    -0.09090
C1451       C  0.66329708  0.00878343  0.98595179     0.29770
C1452       C  0.63398292  0.50497818  0.50640484    -0.21050
C1453       C  0.60531324  0.01851452  0.99572476    -0.09100
C1454       C  0.60645027  0.03716289  0.96497928     0.29770
F1455       F  0.57869231  0.04997462  0.95396108    -0.19630
H1456       H  0.63611154  0.05569863  0.92097306     0.18140
H1457       H  0.63310945  0.48974409  0.52962108     0.18150
F1458       F  0.68967524  0.49250796  0.99567064    -0.19610
C1459       C  0.84307440  0.03734271  0.94994661    -0.21050
C1460       C  0.84112230  0.01484416  0.97830858    -0.09090
C1461       C  0.81078274  0.99665002  0.98796338     0.29770
C1462       C  0.78332777  0.00052665  0.96952807    -0.21050
C1463       C  0.78507599  0.02276391  0.94120199    -0.09100
C1464       C  0.81520769  0.04115240  0.93128300     0.29770
F1465       F  0.81744470  0.06312872  0.90417425    -0.19630
H1466       H  0.86620502  0.05152711  0.94201466     0.18140
H1467       H  0.76032431  0.48613324  0.97758827     0.18150
F1468       F  0.80731066  0.47547679  0.51574743    -0.19610
C1469       C  0.63913804  0.47390203  0.66404129    -0.21050
C1470       C  0.63968043  0.44730197  0.68787009    -0.09090
C1471       C  0.61240496  0.42367337  0.69269276     0.29770
C1472       C  0.58474695  0.42699472  0.67361433    -0.21050
C1473       C  0.58417368  0.45393297  0.64964627    -0.09100
C1474       C  0.61200055  0.47726451  0.64504704     0.29770
F1475       F  0.61358167  0.50321905  0.62168905    -0.19630
H1476       H  0.66027697  0.49199225  0.65974921     0.18140
H1477       H  0.56380282  0.40870761  0.67770998     0.18150
F1478       F  0.61281091  0.39729005  0.71525129    -0.19610
C1479       C  0.78938866  0.42997451  0.68584719    -0.21050
C1480       C  0.76033005  0.44182551  0.67372807    -0.09090
C1481       C  0.76107105  0.45488655  0.64026094     0.29770
C1482       C  0.79060521  0.45721136  0.62011130    -0.21050
C1483       C  0.81988468  0.44739406  0.63314407    -0.09100
C1484       C  0.81898282  0.43303629  0.66590149     0.29770
F1485       F  0.84708969  0.42313018  0.67898049    -0.19630
H1486       H  0.78947464  0.41940909  0.71121750     0.18140
H1487       H  0.79112214  0.46890187  0.59511038     0.18150
F1488       F  0.73411172  0.46800561  0.62772036    -0.19610
C1489       C  0.68845715  0.46291566  0.80918814    -0.21050
C1490       C  0.70918049  0.47580507  0.78152432    -0.09090
C1491       C  0.73336273  0.50177491  0.78579815     0.29770
C1492       C  0.73680865  0.01407024  0.81717033    -0.21050
C1493       C  0.71609359  0.00106410  0.84483680    -0.09100
C1494       C  0.69187691  0.47518496  0.84047740     0.29770
F1495       F  0.67219819  0.46081728  0.86669309    -0.19630
H1496       H  0.66995903  0.44270493  0.80672473     0.18140
H1497       H  0.75540104  0.03415924  0.81976447     0.18150
F1498       F  0.75308107  0.01597275  0.75953069    -0.19610
C1499       C  0.84689915  0.10259585  0.61464868    -0.21050
C1500       C  0.87714624  0.10451003  0.59523528    -0.09090
C1501       C  0.88848245  0.13485242  0.57771857     0.29770
C1502       C  0.86968530  0.16218597  0.57875995    -0.21050
C1503       C  0.83929164  0.16042132  0.59754657    -0.09100
C1504       C  0.82790179  0.13044894  0.61571103     0.29770
F1505       F  0.79890315  0.12831331  0.63468614    -0.19630
H1506       H  0.83764402  0.07943908  0.62818429     0.18140
H1507       H  0.87901770  0.18509309  0.56474620     0.18150
F1508       F  0.91799857  0.13823834  0.55948025    -0.19610
C1509       C  0.88557508  0.28152146  0.59262262    -0.21120
C1510       C  0.85149813  0.28166954  0.60233434    -0.09090
C1511       C  0.83927188  0.31130548  0.61267627     0.29770
C1512       C  0.86005895  0.34047878  0.61073621    -0.21050
C1513       C  0.89350310  0.34056189  0.59923436    -0.09100
C1514       C  0.90650921  0.31065833  0.59139340     0.29770
F1515       F  0.93864890  0.31017386  0.57986998    -0.19630
H1516       H  0.89577449  0.25925600  0.58419284     0.18140
H1517       H  0.84973463  0.36344290  0.61710365     0.18150
F1518       F  0.80712690  0.31232564  0.62398830    -0.19610
C1519       C  0.52079360  0.15594692  0.54823454    -0.21050
C1520       C  0.52795919  0.12856620  0.53032938    -0.09090
C1521       C  0.55536114  0.13110570  0.50700528     0.29770
C1522       C  0.57597026  0.16046888  0.00236781    -0.21050
C1523       C  0.56948334  0.18767099  0.52096096    -0.09100
C1524       C  0.54139208  0.18535900  0.54365834     0.29770
F1525       F  0.53517696  0.21068791  0.56305026    -0.19630
H1526       H  0.50023676  0.15397049  0.56691209     0.18140
H1527       H  0.59747806  0.16172897  0.98488056     0.18150
F1528       F  0.56285599  0.10467728  0.98969319    -0.19610
C1529       C  0.55462508  0.35304288  0.99980451    -0.21050
C1530       C  0.55206941  0.36582893  0.53136654    -0.09090
C1531       C  0.56893674  0.35096088  0.55734428     0.29770
C1532       C  0.58705459  0.32345850  0.55205044    -0.21050
C1533       C  0.58833304  0.30977861  0.52106280    -0.09100
C1534       C  0.57226304  0.32492262  0.99476221     0.29770
F1535       F  0.57310737  0.31211368  0.96450403    -0.19630
H1536       H  0.54185489  0.36396577  0.97944042     0.18140
H1537       H  0.59896470  0.31186094  0.57268276     0.18150
F1538       F  0.56761872  0.36270748  0.58810406    -0.19610
C1539       C  0.69246382  0.25591121  0.56737211    -0.21050
C1540       C  0.68200422  0.23796543  0.54079841    -0.09090
C1541       C  0.70321146  0.21529432  0.52739231     0.29770
C1542       C  0.73407576  0.21083616  0.54049144    -0.21050
C1543       C  0.74445592  0.22891058  0.56709887    -0.09100
C1544       C  0.72313963  0.25148432  0.58041510     0.29770
F1545       F  0.73151087  0.26870121  0.60678993    -0.19630
H1546       H  0.67641978  0.27290777  0.57875040     0.18140
H1547       H  0.75013480  0.19367993  0.52941390     0.18150
F1548       F  0.69445255  0.19797964  0.50120349    -0.19610
C1549       C  0.60293684  0.77748809  0.51821989     0.03390
C1550       C  0.63608163  0.77381916  0.02530273    -0.12760
C1551       C  0.64830686  0.74203907  0.02879109     0.00890
C1552       C  0.62669163  0.71393889  0.02507105    -0.11290
C1553       C  0.59330438  0.71735567  0.51870930     0.03380
C1554       C  0.58189384  0.74920739  0.51445638    -0.10710
H1555       H  0.65196986  0.79569819  0.02927649     0.08970
H1556       H  0.63508330  0.68928462  0.02974358     0.06500
H1557       H  0.55596068  0.75189431  0.51045601     0.06350
C1558       C  0.82170597  0.69123535  0.09867179     0.03390
C1559       C  0.79023070  0.69373821  0.08612305    -0.12760
C1560       C  0.77770157  0.72521590  0.08040518     0.00890
C1561       C  0.79777009  0.75386752  0.08618049    -0.11290
C1562       C  0.82886530  0.75150932  0.09948586     0.03380
C1563       C  0.83985928  0.72000899  0.10676191    -0.10710
H1564       H  0.77615870  0.67150031  0.07986356     0.08970
H1565       H  0.78965069  0.77809676  0.07889719     0.06500
H1566       H  0.86388370  0.71778920  0.11681146     0.06350
C1567       C  0.67051207  0.94409815  0.20491668     0.03390
C1568       C  0.67383518  0.95620862  0.23642527    -0.12760
C1569       C  0.70546794  0.96174598  0.24861873     0.00890
C1570       C  0.73359991  0.95510986  0.22861414    -0.11290
C1571       C  0.73048155  0.94344510  0.19677370     0.03380
C1572       C  0.69872602  0.93678600  0.18583424    -0.10710
H1573       H  0.65206371  0.96322115  0.25046679     0.08970
H1574       H  0.75804390  0.96009804  0.23741345     0.06500
H1575       H  0.69585960  0.92795980  0.16132719     0.06350
C1576       C  0.75429327  0.52688066  0.42398978     0.03390
C1577       C  0.75140759  0.51802024  0.39112357    -0.12760
C1578       C  0.71990673  0.51419558  0.37814208     0.00890
C1579       C  0.69160809  0.51990422  0.39839352    -0.11290
C1580       C  0.69433848  0.52812695  0.43141289     0.03380
C1581       C  0.72580861  0.53309767  0.44333269    -0.10710
H1582       H  0.77321898  0.51171895  0.37666893     0.08970
H1583       H  0.66723862  0.51620442  0.38901239     0.06500
H1584       H  0.72807930  0.53948838  0.46880622     0.06350
C1585       C  0.51348231  0.62491120  0.27011127     0.03390
C1586       C  0.50648036  0.65826929  0.27277757    -0.12760
C1587       C  0.50340091  0.67133681  0.30414541     0.00890
C1588       C  0.50803273  0.65073425  0.33261093    -0.11290
C1589       C  0.51343307  0.61698201  0.33036207     0.03380
C1590       C  0.51729385  0.60450503  0.29892995    -0.10710
H1591       H  0.50090913  0.67312979  0.25074562     0.08970
H1592       H  0.50461450  0.66026943  0.35697061     0.06500
H1593       H  0.51953728  0.57811584  0.29701551     0.06350
C1594       C  0.93062181  0.84093123  0.35754129     0.03390
C1595       C  0.92409240  0.86122906  0.32949347    -0.12760
C1596       C  0.93100126  0.85136610  0.29730171     0.00890
C1597       C  0.94318942  0.81999999  0.29336502    -0.11290
C1598       C  0.94890853  0.79881585  0.32112014     0.03380
C1599       C  0.94255070  0.80954810  0.35318120    -0.10710
H1600       H  0.91499202  0.88544945  0.33274271     0.08970
H1601       H  0.94887201  0.81228007  0.26859277     0.06500
H1602       H  0.94796213  0.79396342  0.37476822     0.06350
O1603       O  0.52700203  0.91537379  0.01390632    -0.79870
O1604       O  0.92735007  0.96217625  0.16958332    -0.81430
O1605       O  0.53267356  0.93450828  0.12815096    -0.78450
O1606       O  0.94136351  0.87855442  0.10059939    -0.76830
O1607       O  0.89701532  0.89301964  0.07160980    -0.78620
O1608       O  0.55342688  0.98815164  0.11586717    -0.79550
O1609       O  0.95680582  0.91833195  0.15502450    -0.80880
O1610       O  0.51692051  0.89331275  0.06755207    -0.81170
Eu1611     Eu  0.98101473  0.92853626  0.09830447     2.39200
O1612       O  0.92824548  0.94865393  0.09908251    -0.88680
O1613       O  0.51651373  0.96489548  0.06194450    -0.92280
C1614       C  0.53068716  0.89332219  0.03787611     1.02410
C1615       C  0.93852019  0.93331981  0.17554395     1.02230
C1616       C  0.55482916  0.95887118  0.13002767     1.02170
C1617       C  0.91213776  0.87264911  0.09003355     1.00030
H1618       H  0.98996302  0.98162714  0.14032957     0.29780
O1619       O  0.98203385  0.98220543  0.11822674    -1.01070
H1620       H  0.96030976  0.90719276  0.03734940     0.29810
O1621       O  0.96097773  0.92944912  0.04474516    -1.03610
O1622       O  0.89781548  0.55260644  0.11419234    -0.80830
O1623       O  0.99682806  0.00478193  0.45765745    -0.80370
O1624       O  0.51235611  0.54831811  0.13287591    -0.78810
O1625       O  0.85788618  0.94640757  0.08582393    -0.82150
O1626       O  0.91255674  0.91794356  0.99568411    -0.80000
O1627       O  0.56689881  0.52025685  0.04238511    -0.78650
O1628       O  0.98222679  0.58883035  0.02795786    -0.80170
O1629       O  0.89265838  0.53298945  0.99965901    -0.82100
O1630       O  0.52614189  0.57610297  0.05848935    -0.78840
O1631       O  0.87128541  0.97937501  0.01129703    -0.81510
O1632       O  0.95931007  0.53701095  0.15527932    -0.77250
O1633       O  0.55310148  0.99014337  0.99839114    -0.77280
O1634       O  0.96602920  0.92893489  0.47391650    -0.76920
O1635       O  0.87228266  0.97556825  0.13021847    -0.80420
O1636       O  0.90973375  0.57405968  0.06058959    -0.79850
O1637       O  0.96546172  0.54694098  0.47238198    -0.78170
Eu1638     Eu  0.92832250  0.00139163  0.11964030     2.39770
Eu1639     Eu  0.99631396  0.96609279  0.00834784     2.39570
Eu1640     Eu  0.51712182  0.51856241  0.08142639     2.38400
Eu1641     Eu  0.90741553  0.94903005  0.04635294     2.39880
Eu1642     Eu  0.94386019  0.53818876  0.02978649     2.39790
O1643       O  0.94252881  0.98492245  0.00944021    -0.92590
O1644       O  0.96365543  0.53790026  0.08339190    -0.91480
C1645       C  0.89590731  0.57499360  0.09002787     1.02580
C1646       C  0.98381861  0.53271322  0.45133639     1.01300
C1647       C  0.98879927  0.55119059  0.15538562     1.00690
C1648       C  0.85199779  0.95695302  0.11500262     1.02700
C1649       C  0.93670584  0.91436691  0.47404359     1.01620
C1650       C  0.57321095  0.00891605  0.01364286     1.00470
C1651       C  0.51064740  0.59592930  0.03970958     1.00530
C1652       C  0.87038080  0.50889621  0.99742929     1.03140
H1653       H  0.51147606  0.53422107  0.01338354     0.30510
O1654       O  0.99704845  0.51920135  0.02828931    -1.04750
H1655       H  0.88566913  0.50990441  0.06686916     0.32560
O1656       O  0.90783709  0.00247390  0.06612238    -1.07310
C1657       C  0.91489950  0.86224091  0.23900110    -0.21050
C1658       C  0.92779191  0.87450452  0.26767438    -0.09090
C1659       C  0.94006261  0.90817238  0.26666827     0.29770
C1660       C  0.94088981  0.92839206  0.23704689    -0.21050
C1661       C  0.93015760  0.91522006  0.20802641    -0.09100
C1662       C  0.91634310  0.88226343  0.20935772     0.29770
F1663       F  0.90551908  0.86905000  0.18154864    -0.19630
H1664       H  0.90481232  0.83668892  0.23921559     0.18140
H1665       H  0.95214024  0.95357786  0.23617958     0.18150
F1666       F  0.95379530  0.92086068  0.29337734    -0.19610
C1667       C  0.90194627  0.87235517  0.40119412    -0.21050
C1668       C  0.92905448  0.85471123  0.39071613    -0.09090
C1669       C  0.95669104  0.85412075  0.41013528     0.29770
C1670       C  0.95788823  0.87228540  0.43820618    -0.21050
C1671       C  0.93170272  0.89140148  0.44763015    -0.09100
C1672       C  0.90312842  0.89048483  0.42959263     0.29770
F1673       F  0.87753424  0.90893468  0.43791511    -0.19630
H1674       H  0.88040846  0.87314154  0.38660231     0.18140
H1675       H  0.98006697  0.87249058  0.45194162     0.18150
F1676       F  0.98378221  0.83827149  0.40056936    -0.19610
C1677       C  0.97570605  0.60101457  0.23094180    -0.21050
C1678       C  0.50828121  0.60900681  0.23888775    -0.09090
C1679       C  0.53476201  0.59895502  0.21884385     0.29770
C1680       C  0.52846999  0.58084725  0.19114018    -0.21050
C1681       C  0.99566273  0.57200945  0.18353296    -0.09100
C1682       C  0.96929371  0.58262257  0.20376331     0.29770
F1683       F  0.93714697  0.57512968  0.19762141    -0.19630
H1684       H  0.95507262  0.60830448  0.24650480     0.18140
H1685       H  0.54923959  0.57301158  0.17619127     0.18150
F1686       F  0.56653298  0.60624103  0.22635064    -0.19610
C1687       C  0.97706787  0.59617873  0.37970664    -0.21050
C1688       C  0.50663421  0.59385156  0.36042389    -0.09090
C1689       C  0.52767224  0.56891609  0.36942982     0.29770
C1690       C  0.51966879  0.54774141  0.39832524    -0.21050
C1691       C  0.99055451  0.55115654  0.41833110    -0.09100
C1692       C  0.96899499  0.57524506  0.40811449     0.29770
F1693       F  0.93995178  0.57892516  0.42567935    -0.19630
H1694       H  0.95986686  0.61435377  0.37261564     0.18140
H1695       H  0.53670899  0.52951412  0.40561377     0.18150
F1696       F  0.55631190  0.56579454  0.35101672    -0.19610
C1697       C  0.98954043  0.76360729  0.29298085    -0.21050
C1698       C  0.96288015  0.76617057  0.31655696    -0.09090
C1699       C  0.94975142  0.73733211  0.33562589     0.29770
C1700       C  0.96319764  0.70688159  0.33138422    -0.21050
C1701       C  0.98998722  0.70430322  0.30805023    -0.09100
C1702       C  0.50295089  0.73299546  0.28866000     0.29770
F1703       F  0.52904862  0.73162083  0.26617016    -0.19630
H1704       H  0.00035050  0.78547311  0.27819128     0.18140
H1705       H  0.95219627  0.68502288  0.34607463     0.18150
F1706       F  0.92323828  0.73830639  0.35770508    -0.19610
C1707       C  0.63588545  0.54164443  0.44480755    -0.21050
C1708       C  0.66443705  0.52699365  0.45470439    -0.09090
C1709       C  0.66329703  0.50878339  0.48595180     0.29770
C1710       C  0.63398298  0.00497823  0.00640483    -0.21050
C1711       C  0.60531318  0.51851446  0.49572477    -0.09100
C1712       C  0.60645021  0.53716283  0.46497929     0.29770
F1713       F  0.57869224  0.54997456  0.45396109    -0.19630
H1714       H  0.63611147  0.55569859  0.42097307     0.18140
H1715       H  0.63310950  0.98974414  0.02962108     0.18150
F1716       F  0.68967519  0.99250792  0.49567063    -0.19610
C1717       C  0.84307434  0.53734269  0.44994663    -0.21050
C1718       C  0.84112224  0.51484414  0.47830860    -0.09090
C1719       C  0.81078268  0.49664999  0.48796339     0.29770
C1720       C  0.78332771  0.50052664  0.46952808    -0.21050
C1721       C  0.78507593  0.52276391  0.44120201    -0.09100
C1722       C  0.81520763  0.54115239  0.43128303     0.29770
F1723       F  0.81744464  0.56312872  0.40417427    -0.19630
H1724       H  0.86620497  0.55152710  0.44201468     0.18140
H1725       H  0.76032423  0.98613321  0.47758829     0.18150
F1726       F  0.80731073  0.97547682  0.01574743    -0.19610
C1727       C  0.63913812  0.97390208  0.16404129    -0.21050
C1728       C  0.63968050  0.94730201  0.18787007    -0.09090
C1729       C  0.61240502  0.92367343  0.19269274     0.29770
C1730       C  0.58474701  0.92699480  0.17361432    -0.21050
C1731       C  0.58417375  0.95393306  0.14964627    -0.09100
C1732       C  0.61200062  0.97726459  0.14504705     0.29770
F1733       F  0.61358175  0.00321914  0.12168907    -0.19630
H1734       H  0.66027706  0.99199229  0.15974921     0.18140
H1735       H  0.56380287  0.90870770  0.17770997     0.18150
F1736       F  0.61281095  0.89729010  0.21525126    -0.19610
C1737       C  0.78938873  0.92997454  0.18584718    -0.21050
C1738       C  0.76033011  0.94182554  0.17372807    -0.09090
C1739       C  0.76107112  0.95488658  0.14026094     0.29770
C1740       C  0.79060527  0.95721140  0.12011130    -0.21050
C1741       C  0.81988475  0.94739411  0.13314406    -0.09100
C1742       C  0.81898288  0.93303633  0.16590148     0.29770
F1743       F  0.84708976  0.92313021  0.17898048    -0.19630
H1744       H  0.78947470  0.91940910  0.21121749     0.18140
H1745       H  0.79112220  0.96890192  0.09511038     0.18150
F1746       F  0.73411178  0.96800564  0.12772036    -0.19610
C1747       C  0.68845717  0.96291564  0.30918813    -0.21050
C1748       C  0.70918053  0.97580505  0.28152432    -0.09090
C1749       C  0.73336275  0.00177490  0.28579817     0.29770
C1750       C  0.73680862  0.51407024  0.31717035    -0.21050
C1751       C  0.71609356  0.50106409  0.34483681    -0.09100
C1752       C  0.69187691  0.97518495  0.34047740     0.29770
F1753       F  0.67219817  0.96081727  0.36669308    -0.19630
H1754       H  0.66995906  0.94270491  0.30672472     0.18140
H1755       H  0.75540100  0.53415924  0.31976449     0.18150
F1756       F  0.75308106  0.51597275  0.25953072    -0.19610
C1757       C  0.84689926  0.60259593  0.11464870    -0.21050
C1758       C  0.87714635  0.60451012  0.09523530    -0.09090
C1759       C  0.88848256  0.63485251  0.07771861     0.29770
C1760       C  0.86968542  0.66218607  0.07876002    -0.21050
C1761       C  0.83929176  0.66042141  0.09754663    -0.09100
C1762       C  0.82790190  0.63044903  0.11571107     0.29770
F1763       F  0.79890326  0.62831339  0.13468618    -0.19630
H1764       H  0.83764411  0.57943916  0.12818429     0.18140
H1765       H  0.87901783  0.68509319  0.06474628     0.18150
F1766       F  0.91799869  0.63823844  0.05948030    -0.19610
C1767       C  0.88557521  0.78152153  0.09262275    -0.21120
C1768       C  0.85149826  0.78166961  0.10233450    -0.09090
C1769       C  0.83927202  0.81130554  0.11267644     0.29770
C1770       C  0.86005907  0.84047885  0.11073636    -0.21050
C1771       C  0.89350321  0.84056197  0.09923446    -0.09100
C1772       C  0.90650933  0.81065841  0.09139350     0.29770
F1773       F  0.93864901  0.81017395  0.07987006    -0.19630
H1774       H  0.89577461  0.75925607  0.08419297     0.18140
H1775       H  0.84973476  0.86344297  0.11710380     0.18150
F1776       F  0.80712704  0.81232570  0.12398851    -0.19610
C1777       C  0.52079368  0.65594698  0.04823456    -0.21050
C1778       C  0.52795932  0.62856625  0.03032943    -0.09090
C1779       C  0.55536132  0.63110574  0.00700540     0.29770
C1780       C  0.57597019  0.66046883  0.50236781    -0.21050
C1781       C  0.56948349  0.68767104  0.02096109    -0.09100
C1782       C  0.54139218  0.68535905  0.04365840     0.29770
F1783       F  0.53517702  0.71068796  0.06305031    -0.19630
H1784       H  0.50023680  0.65397056  0.06691206     0.18140
H1785       H  0.59747798  0.66172892  0.48488054     0.18150
F1786       F  0.56285589  0.60467724  0.48969317    -0.19610
C1787       C  0.55462505  0.85304283  0.49980451    -0.21050
C1788       C  0.55206950  0.86582900  0.03136659    -0.09090
C1789       C  0.56893683  0.85096097  0.05734434     0.29770
C1790       C  0.58705468  0.82345858  0.05205052    -0.21050
C1791       C  0.58833314  0.80977868  0.02106289    -0.09100
C1792       C  0.57226301  0.82492256  0.49476221     0.29770
F1793       F  0.57310734  0.81211363  0.46450403    -0.19630
H1794       H  0.54185486  0.86396572  0.47944042     0.18140
H1795       H  0.59896479  0.81186104  0.07268285     0.18150
F1796       F  0.56761880  0.86270759  0.08810411    -0.19610
C1797       C  0.69246397  0.75591135  0.06737219    -0.21050
C1798       C  0.68200436  0.73796555  0.04079849    -0.09090
C1799       C  0.70321160  0.71529445  0.02739239     0.29770
C1800       C  0.73407591  0.71083630  0.04049151    -0.21050
C1801       C  0.74445607  0.72891072  0.06709895    -0.09100
C1802       C  0.72313978  0.75148447  0.08041516     0.29770
F1803       F  0.73151102  0.76870136  0.10678999    -0.19630
H1804       H  0.67641993  0.77290790  0.07875047     0.18140
H1805       H  0.75013495  0.69368007  0.02941397     0.18150
F1806       F  0.69445269  0.69797976  0.00120358    -0.19610
C1807       C  0.60293689  0.77748816  0.01821988     0.03390
C1808       C  0.63608158  0.77381909  0.52530273    -0.12760
C1809       C  0.64830681  0.74203901  0.52879108     0.00890
C1810       C  0.62669159  0.71393883  0.52507105    -0.11290
C1811       C  0.59330443  0.71735574  0.01870928     0.03380
C1812       C  0.58189390  0.74920746  0.01445635    -0.10710
H1813       H  0.65196981  0.79569813  0.52927648     0.08970
H1814       H  0.63508326  0.68928455  0.52974357     0.06500
H1815       H  0.55596074  0.75189439  0.01045597     0.06350
C1816       C  0.82170591  0.69123530  0.59867181     0.03390
C1817       C  0.79023065  0.69373815  0.58612306    -0.12760
C1818       C  0.77770152  0.72521585  0.58040518     0.00890
C1819       C  0.79777005  0.75386747  0.58618049    -0.11290
C1820       C  0.82886526  0.75150926  0.59948587     0.03380
C1821       C  0.83985923  0.72000894  0.60676193    -0.10710
H1822       H  0.77615865  0.67150026  0.57986356     0.08970
H1823       H  0.78965066  0.77809671  0.57889719     0.06500
H1824       H  0.86388364  0.71778914  0.61681150     0.06350
C1825       C  0.67051204  0.94409817  0.70491670     0.03390
C1826       C  0.67383516  0.95620865  0.73642528    -0.12760
C1827       C  0.70546793  0.96174599  0.74861874     0.00890
C1828       C  0.73359988  0.95510984  0.72861415    -0.11290
C1829       C  0.73048151  0.94344508  0.69677371     0.03380
C1830       C  0.69872598  0.93678600  0.68583425    -0.10710
H1831       H  0.65206370  0.96322120  0.75046680     0.08970
H1832       H  0.75804388  0.96009801  0.73741345     0.06500
H1833       H  0.69585955  0.92795979  0.66132721     0.06350
C1834       C  0.75429333  0.52688066  0.92398975     0.03390
C1835       C  0.75140763  0.51802024  0.89112354    -0.12760
C1836       C  0.71990677  0.51419559  0.87814206     0.00890
C1837       C  0.69160813  0.51990425  0.89839350    -0.11290
C1838       C  0.69433854  0.52812698  0.93141287     0.03380
C1839       C  0.72580867  0.53309768  0.94333267    -0.10710
H1840       H  0.77321901  0.51171894  0.87666889     0.08970
H1841       H  0.66723866  0.51620446  0.88901238     0.06500
H1842       H  0.72807938  0.53948838  0.96880620     0.06350
C1843       C  0.51348228  0.62491117  0.77011123     0.03390
C1844       C  0.50648032  0.65826927  0.77277753    -0.12760
C1845       C  0.50340089  0.67133679  0.80414537     0.00890
C1846       C  0.50803273  0.65073423  0.83261089    -0.11290
C1847       C  0.51343306  0.61698199  0.83036202     0.03380
C1848       C  0.51729383  0.60450501  0.79892991    -0.10710
H1849       H  0.50090909  0.67312977  0.75074558     0.08970
H1850       H  0.50461450  0.66026941  0.85697057     0.06500
H1851       H  0.51953726  0.57811582  0.79701546     0.06350
C1852       C  0.93062183  0.84093123  0.85754133     0.03390
C1853       C  0.92409241  0.86122905  0.82949351    -0.12760
C1854       C  0.93100126  0.85136608  0.79730174     0.00890
C1855       C  0.94318942  0.81999997  0.79336506    -0.11290
C1856       C  0.94890855  0.79881584  0.82112018     0.03380
C1857       C  0.94255073  0.80954809  0.85318125    -0.10710
H1858       H  0.91499203  0.88544944  0.83274274     0.08970
H1859       H  0.94887201  0.81228004  0.76859281     0.06500
H1860       H  0.94796216  0.79396342  0.87476827     0.06350
O1861       O  0.52700200  0.91537375  0.51390632    -0.79870
O1862       O  0.92735004  0.96217619  0.66958333    -0.81430
O1863       O  0.53267354  0.93450827  0.62815096    -0.78450
O1864       O  0.94136349  0.87855436  0.60059941    -0.76830
O1865       O  0.89701529  0.89301956  0.57160982    -0.78620
O1866       O  0.55342684  0.98815164  0.61586717    -0.79550
O1867       O  0.95680581  0.91833190  0.65502451    -0.80880
O1868       O  0.51692049  0.89331272  0.56755208    -0.81170
Eu1869     Eu  0.98101470  0.92853621  0.59830447     2.39200
O1870       O  0.92824544  0.94865386  0.59908252    -0.88680
O1871       O  0.51651369  0.96489545  0.56194450    -0.92280
C1872       C  0.53068713  0.89332215  0.53787611     1.02410
C1873       C  0.93852017  0.93331975  0.67554396     1.02230
C1874       C  0.55482914  0.95887118  0.63002767     1.02170
C1875       C  0.91213773  0.87264904  0.59003358     1.00030
H1876       H  0.98996298  0.98162710  0.64032956     0.29780
O1877       O  0.98203380  0.98220539  0.61822673    -1.01070
H1878       H  0.96030973  0.90719269  0.53734941     0.29810
O1879       O  0.96097769  0.92944905  0.54474516    -1.03610
O1880       O  0.89781544  0.55260639  0.61419236    -0.80830
O1881       O  0.99682811  0.00478197  0.95765744    -0.80370
O1882       O  0.51235606  0.54831801  0.63287591    -0.78810
O1883       O  0.85788614  0.94640747  0.58582395    -0.82150
O1884       O  0.91255670  0.91794348  0.49568412    -0.80000
O1885       O  0.56689875  0.52025675  0.54238512    -0.78650
O1886       O  0.98222675  0.58883032  0.52795789    -0.80170
O1887       O  0.89265834  0.53298944  0.49965902    -0.82100
O1888       O  0.52614184  0.57610287  0.55848938    -0.78840
O1889       O  0.87128534  0.97937489  0.51129704    -0.81510
O1890       O  0.95931003  0.53701090  0.65527932    -0.77250
O1891       O  0.55310145  0.99014334  0.49839115    -0.77280
O1892       O  0.96602925  0.92893494  0.97391651    -0.76920
O1893       O  0.87228262  0.97556816  0.63021848    -0.80420
O1894       O  0.90973371  0.57405964  0.56058961    -0.79850
O1895       O  0.96546175  0.54694098  0.97238196    -0.78170
Eu1896     Eu  0.92832244  0.00139156  0.61964031     2.39770
Eu1897     Eu  0.99631391  0.96609273  0.50834784     2.39570
Eu1898     Eu  0.51712175  0.51856231  0.58142640     2.38400
Eu1899     Eu  0.90741549  0.94902996  0.54635295     2.39880
Eu1900     Eu  0.94386014  0.53818873  0.52978650     2.39790
O1901       O  0.94252875  0.98492236  0.50944021    -0.92590
O1902       O  0.96365539  0.53790021  0.58339192    -0.91480
C1903       C  0.89590727  0.57499355  0.59002790     1.02580
C1904       C  0.98381865  0.53271322  0.95133638     1.01300
C1905       C  0.98879922  0.55119053  0.65538562     1.00690
C1906       C  0.85199775  0.95695293  0.61500264     1.02700
C1907       C  0.93670588  0.91436697  0.97404359     1.01620
C1908       C  0.57321090  0.00891604  0.51364286     1.00470
C1909       C  0.51064736  0.59592922  0.53970962     1.00530
C1910       C  0.87038075  0.50889621  0.49742930     1.03140
H1911       H  0.51147601  0.53422100  0.51338356     0.30510
O1912       O  0.99704840  0.51920131  0.52828932    -1.04750
H1913       H  0.88566908  0.50990438  0.56686916     0.32560
O1914       O  0.90783701  0.00247380  0.56612239    -1.07310
C1915       C  0.91489950  0.86224087  0.73900113    -0.21050
C1916       C  0.92779191  0.87450449  0.76767441    -0.09090
C1917       C  0.94006259  0.90817236  0.76666829     0.29770
C1918       C  0.94088979  0.92839203  0.73704690    -0.21050
C1919       C  0.93015759  0.91522001  0.70802642    -0.09100
C1920       C  0.91634311  0.88226337  0.70935775     0.29770
F1921       F  0.90551909  0.86904993  0.68154866    -0.19630
H1922       H  0.90481233  0.83668887  0.73921563     0.18140
H1923       H  0.95214021  0.95357783  0.73617958     0.18150
F1924       F  0.95379527  0.92086067  0.79337735    -0.19610
C1925       C  0.90194629  0.87235519  0.90119414    -0.21050
C1926       C  0.92905451  0.85471124  0.89071616    -0.09090
C1927       C  0.95669107  0.85412078  0.91013530     0.29770
C1928       C  0.95788827  0.87228545  0.93820619    -0.21050
C1929       C  0.93170276  0.89140153  0.94763016    -0.09100
C1930       C  0.90312846  0.89048487  0.92959265     0.29770
F1931       F  0.87753428  0.90893472  0.93791512    -0.19630
H1932       H  0.88040848  0.87314154  0.88660235     0.18140
H1933       H  0.98006701  0.87249063  0.95194163     0.18150
F1934       F  0.98378224  0.83827151  0.90056940    -0.19610
C1935       C  0.97570602  0.60101452  0.73094180    -0.21050
C1936       C  0.50828116  0.60900678  0.73888771    -0.09090
C1937       C  0.53476196  0.59895500  0.71884380     0.29770
C1938       C  0.52846994  0.58084720  0.69114015    -0.21050
C1939       C  0.99566269  0.57200940  0.68353296    -0.09100
C1940       C  0.96929367  0.58262251  0.70376332     0.29770
F1941       F  0.93714693  0.57512959  0.69762144    -0.19630
H1942       H  0.95507259  0.60830442  0.74650481     0.18140
H1943       H  0.54923954  0.57301154  0.67619123     0.18150
F1944       F  0.56653294  0.60624103  0.72635058    -0.19610
C1945       C  0.97706786  0.59617868  0.87970660    -0.21050
C1946       C  0.50663421  0.59385154  0.86042384    -0.09090
C1947       C  0.52767226  0.56891609  0.86942979     0.29770
C1948       C  0.51966882  0.54774142  0.89832522    -0.21050
C1949       C  0.99055453  0.55115653  0.91833108    -0.09100
C1950       C  0.96899498  0.57524501  0.90811445     0.29770
F1951       F  0.93995177  0.57892508  0.92567930    -0.19630
H1952       H  0.95986683  0.61435369  0.87261558     0.18140
H1953       H  0.53670904  0.52951416  0.90561376     0.18150
F1954       F  0.55631193  0.56579455  0.85101669    -0.19610
C1955       C  0.98954043  0.76360728  0.79298087    -0.21050
C1956       C  0.96288017  0.76617056  0.81655700    -0.09090
C1957       C  0.94975144  0.73733209  0.83562594     0.29770
C1958       C  0.96319765  0.70688157  0.83138424    -0.21050
C1959       C  0.98998721  0.70430320  0.80805023    -0.09100
C1960       C  0.50295088  0.73299545  0.78865998     0.29770
F1961       F  0.52904859  0.73162081  0.76617012    -0.19630
H1962       H  0.00035049  0.78547309  0.77819130     0.18140
H1963       H  0.95219628  0.68502286  0.84607466     0.18150
F1964       F  0.92323832  0.73830638  0.85770514    -0.19610
C1965       C  0.63588551  0.54164449  0.94480753    -0.21050
C1966       C  0.66443711  0.52699370  0.95470437    -0.09090
C1967       C  0.66329709  0.50878345  0.98595179     0.29770
C1968       C  0.63398293  0.00497822  0.50640483    -0.21050
C1969       C  0.60531324  0.51851454  0.99572476    -0.09100
C1970       C  0.60645028  0.53716290  0.96497928     0.29770
F1971       F  0.57869231  0.54997464  0.95396107    -0.19630
H1972       H  0.63611154  0.55569864  0.92097306     0.18140
H1973       H  0.63310945  0.98974413  0.52962107     0.18150
F1974       F  0.68967523  0.99250794  0.99567064    -0.19610
C1975       C  0.84307438  0.53734270  0.94994662    -0.21050
C1976       C  0.84112229  0.51484413  0.97830857    -0.09090
C1977       C  0.81078274  0.49664996  0.98796334     0.29770
C1978       C  0.78332777  0.50052660  0.96952802    -0.21050
C1979       C  0.78507598  0.52276389  0.94120197    -0.09100
C1980       C  0.81520768  0.54115240  0.93128301     0.29770
F1981       F  0.81744468  0.56312875  0.90417428    -0.19630
H1982       H  0.86620500  0.55152713  0.94201469     0.18140
H1983       H  0.76032431  0.98613330  0.97758834     0.18150
F1984       F  0.80731065  0.97547667  0.51574738    -0.19610
C1985       C  0.63913808  0.97390212  0.66404133    -0.21050
C1986       C  0.63968046  0.94730203  0.68787010    -0.09090
C1987       C  0.61240500  0.92367343  0.69269274     0.29770
C1988       C  0.58474700  0.92699479  0.67361431    -0.21050
C1989       C  0.58417372  0.95393307  0.64964628    -0.09100
C1990       C  0.61200058  0.97726462  0.64504708     0.29770
F1991       F  0.61358170  0.00321919  0.62168913    -0.19630
H1992       H  0.66027700  0.99199234  0.65974927     0.18140
H1993       H  0.56380286  0.90870768  0.67770993     0.18150
F1994       F  0.61281095  0.89729008  0.71525123    -0.19610
C1995       C  0.78938868  0.92997447  0.68584719    -0.21050
C1996       C  0.76033007  0.94182549  0.67372808    -0.09090
C1997       C  0.76107108  0.95488653  0.64026095     0.29770
C1998       C  0.79060523  0.95721133  0.62011131    -0.21050
C1999       C  0.81988470  0.94739402  0.63314407    -0.09100
C2000       C  0.81898283  0.93303624  0.66590149     0.29770
F2001       F  0.84708970  0.92313011  0.67898049    -0.19630
H2002       H  0.78947465  0.91940904  0.71121751     0.18140
H2003       H  0.79112216  0.96890185  0.59511039     0.18150
F2004       F  0.73411175  0.96800561  0.62772038    -0.19610
C2005       C  0.68845717  0.96291566  0.80918814    -0.21050
C2006       C  0.70918053  0.97580506  0.78152433    -0.09090
C2007       C  0.73336277  0.00177489  0.78579817     0.29770
C2008       C  0.73680861  0.51407026  0.81717031    -0.21050
C2009       C  0.71609357  0.50106411  0.84483679    -0.09100
C2010       C  0.69187693  0.97518496  0.84047741     0.29770
F2011       F  0.67219819  0.96081728  0.86669310    -0.19630
H2012       H  0.66995905  0.94270494  0.80672473     0.18140
H2013       H  0.75540100  0.53415926  0.81976445     0.18150
F2014       F  0.75308101  0.51597278  0.75953067    -0.19610
C2015       C  0.84689921  0.60259587  0.61464872    -0.21050
C2016       C  0.87714630  0.60451007  0.59523533    -0.09090
C2017       C  0.88848253  0.63485247  0.57771865     0.29770
C2018       C  0.86968538  0.66218602  0.57876005    -0.21050
C2019       C  0.83929171  0.66042136  0.59754665    -0.09100
C2020       C  0.82790185  0.63044897  0.61571108     0.29770
F2021       F  0.79890320  0.62831332  0.63468618    -0.19630
H2022       H  0.83764406  0.57943910  0.62818430     0.18140
H2023       H  0.87901780  0.68509315  0.56474632     0.18150
F2024       F  0.91799866  0.63823839  0.55948035    -0.19610
C2025       C  0.88557517  0.78152146  0.59262279    -0.21120
C2026       C  0.85149822  0.78166955  0.60233452    -0.09090
C2027       C  0.83927198  0.81130549  0.61267645     0.29770
C2028       C  0.86005905  0.84047879  0.61073638    -0.21050
C2029       C  0.89350318  0.84056190  0.59923449    -0.09100
C2030       C  0.90650930  0.81065834  0.59139355     0.29770
F2031       F  0.93864899  0.81017386  0.57987012    -0.19630
H2032       H  0.89577457  0.75925600  0.58419301     0.18140
H2033       H  0.84973473  0.86344291  0.61710381     0.18150
F2034       F  0.80712700  0.81232565  0.62398850    -0.19610
C2035       C  0.52079369  0.65594688  0.54823466    -0.21050
C2036       C  0.52795928  0.62856617  0.53032948    -0.09090
C2037       C  0.55536125  0.63110568  0.50700540     0.29770
C2038       C  0.57597027  0.66046888  0.00236782    -0.21050
C2039       C  0.56948344  0.68767096  0.52096112    -0.09100
C2040       C  0.54139218  0.68535896  0.54365849     0.29770
F2041       F  0.53517705  0.71068785  0.56305043    -0.19630
H2042       H  0.50023683  0.65397044  0.56691219     0.18140
H2043       H  0.59747809  0.66172896  0.98488058     0.18150
F2044       F  0.56285601  0.60467727  0.98969322    -0.19610
C2045       C  0.55462509  0.85304288  0.99980450    -0.21050
C2046       C  0.55206947  0.86582895  0.53136660    -0.09090
C2047       C  0.56893680  0.85096092  0.55734434     0.29770
C2048       C  0.58705464  0.82345853  0.55205053    -0.21050
C2049       C  0.58833308  0.80977861  0.52106291    -0.09100
C2050       C  0.57226307  0.82492263  0.99476220     0.29770
F2051       F  0.57310740  0.81211369  0.96450401    -0.19630
H2052       H  0.54185491  0.86396577  0.97944041     0.18140
H2053       H  0.59896475  0.81186099  0.57268285     0.18150
F2054       F  0.56761879  0.86270755  0.58810411    -0.19610
C2055       C  0.69246393  0.75591129  0.56737217    -0.21050
C2056       C  0.68200432  0.73796549  0.54079849    -0.09090
C2057       C  0.70321156  0.71529439  0.52739238     0.29770
C2058       C  0.73407587  0.71083624  0.54049151    -0.21050
C2059       C  0.74445603  0.72891067  0.56709894    -0.09100
C2060       C  0.72313974  0.75148442  0.58041515     0.29770
F2061       F  0.73151098  0.76870132  0.60678997    -0.19630
H2062       H  0.67641989  0.77290786  0.57875046     0.18140
H2063       H  0.75013491  0.69368001  0.52941397     0.18150
F2064       F  0.69445265  0.69797970  0.50120358    -0.19610
loop_ 
_geom_bond_atom_site_label_1 
_geom_bond_atom_site_label_2 
_geom_bond_distance 
_geom_bond_site_symmetry_2 
_ccdc_geom_bond_type 
C1            C6   1.400       .  A
C1          C260   1.405       .  A
C1          C501   1.479       .  S
C2            C3   1.410       .  A
C2          C259   1.405       .  A
C2            H7   1.084       .  S
C3            C4   1.407       .  A
C3          C250   1.492       .  S
C4          C263   1.406       .  A
C4            H8   1.084       .  S
C5            C6   1.401       .  A
C5          C262   1.406       .  A
C5          C491   1.481       .  S
C6            H9   1.084       .  S
C10          C11   1.408       .  A
C10          C15   1.400       .  A
C10         C213   1.479       .  S
C11          C12   1.412       .  A
C11          H16   1.083       .  S
C12          C13   1.409       .  A
C12         C253   1.493       .  S
C13          C14   1.406       .  A
C13          H17   1.083       .  S
C14          C15   1.397       .  A
C14         C220   1.489       .  S
C15          H18   1.084       .  S
C19          C20   1.403       .  A
C19          C24   1.399       .  A
C19         C180   1.472       .  S
C20          C21   1.409       .  A
C20          H25   1.084       .  S
C21          C22   1.408       .  A
C21         C200   1.491       .  S
C22          C23   1.408       .  A
C22          H26   1.083       .  S
C23          C24   1.400       .  A
C23         C190   1.488       .  S
C24          H27   1.084       .  S
C28          C29   1.406       .  A
C28          C33   1.400       .  A
C28         C173   1.478       .  S
C29          C30   1.411       .  A
C29          H34   1.084       .  S
C30          C31   1.408       .  A
C30         C203   1.491       .  S
C31          C32   1.404       .  A
C31          H35   1.083       .  S
C32          C33   1.396       .  A
C32         C160   1.483       .  S
C33          H36   1.084       .  S
C37          C38   1.407       .  A
C37          C42   1.403       .  A
C37         C130   1.472       .  S
C38          C39   1.406       .  A
C38          H43   1.084       .  S
C39          C40   1.403       .  A
C39        C1185   1.488   1_455  S
C40          C41   1.405       .  A
C40          H44   1.084       .  S
C41          C42   1.400       .  A
C41         C140   1.481       .  S
C42          H45   1.084       .  S
C46          C47   1.403       .  A
C46          C51   1.407       .  A
C46         C120   1.484       .  S
C47          C48   1.402       .  A
C47          H52   1.083       .  S
C48          C49   1.407       .  A
C48         C110   1.486       .  S
C49          C50   1.405       .  A
C49          H53   1.083       .  S
C50          C51   1.407       .  A
C50         C150   1.490       .  S
C51          H54   1.083       .  S
O55          C66   1.294       .  A
O55       Eu1123   2.475   1_455  S
O56          C67   1.293       .  A
O56         Eu90   2.476       .  S
O57          C68   1.295       .  A
O57       Eu1095   2.483   1_455  S
O58          C69   1.295       .  A
O58         Eu63   2.485       .  S
O59          C69   1.285       .  A
O59         Eu93   2.418       .  S
O60          C68   1.286       .  A
O60        Eu608   2.425       .  S
O61          C67   1.287       .  A
O61         Eu63   2.432       .  S
O62          C66   1.290       .  A
O62       Eu1095   2.447   1_455  S
Eu63       O1089   2.483       .  S
Eu63       O1094   2.447       .  S
Eu63         O73   2.354       .  S
Eu63         O64   2.339       .  S
Eu63         O71   2.362       .  S
Eu63       O1097   2.354       .  S
O64         Eu93   2.336       .  S
O64         Eu90   2.338       .  S
O65       Eu1095   2.354   1_455  S
O65       Eu1123   2.358   1_455  S
O65        Eu608   2.355       .  S
C66         C240   1.483       .  S
C67         C113   1.467       .  S
C68         C183   1.486       .  S
C69         C223   1.468       .  S
H70          O71   0.966       .  S
O71         Eu90   2.359       .  S
O71       Eu1640   2.355       .  S
H72          O73   0.966       .  S
O73         Eu91   2.357       .  S
O73         Eu93   2.359       .  S
O74          C97   1.295       .  A
O74        Eu606   2.488       .  S
O75         C614   1.295       .  A
O75        Eu349   2.489       .  S
O76        C1131   1.293   1_455  A
O76         Eu92   2.472       .  S
O77         C100   1.293       .  A
O77         Eu93   2.476       .  S
O78         C359   1.293       .  A
O78         Eu93   2.476   1_556  S
O79         C618   1.293       .  A
O79         Eu92   2.476       .  S
O80        C1135   1.293       .  A
O80         Eu94   2.477       .  S
O81         C104   1.292       .  A
O81         Eu94   2.471   1_556  S
O82         C103   1.288       .  A
O82         Eu92   2.440       .  S
O83         C620   1.288   1_554  A
O83         Eu93   2.433       .  S
O84          C99   1.289       .  A
O84        Eu606   2.442       .  S
O85         C102   1.287   1_556  A
O85       Eu1123   2.433   1_456  S
O86         C101   1.288       .  A
O86        Eu349   2.434       .  S
O87         C100   1.287       .  A
O87         Eu90   2.432       .  S
O88          C97   1.286       .  A
O88         Eu94   2.423       .  S
O89          C98   1.286       .  A
O89        Eu352   2.420       .  S
Eu90        O590   2.488       .  S
Eu90        O600   2.442       .  S
Eu90        O108   2.360       .  S
Eu90        O612   2.351       .  S
Eu91       O1087   2.475       .  S
Eu91        O333   2.489   1_554  S
Eu91       O1117   2.433   1_554  S
Eu91        O344   2.434   1_554  S
Eu91         O95   2.356       .  S
Eu91       O1097   2.358       .  S
Eu91        O622   2.341       .  S
Eu92        O576   2.425   1_545  S
Eu92        O581   2.355   1_545  S
Eu92       O1619   2.355   1_445  S
Eu92       O1138   2.339   1_455  S
Eu92       O1128   2.352   1_455  S
Eu93         O95   2.348       .  S
Eu93        O108   2.352       .  S
Eu94        O347   2.420   1_554  S
Eu94        O106   2.336       .  S
Eu94         O96   2.352       .  S
Eu94        O611   2.353   1_545  S
Eu94        O624   2.351       .  S
O95        Eu610   2.353       .  S
O96        Eu606   2.351       .  S
O96       Eu1124   2.352       .  S
C97         C210   1.478       .  S
C98         C143   1.483       .  S
C98         O591   1.295       .  A
C99         C133   1.486       .  S
C99        O1108   1.293       .  A
C100        C193   1.467       .  S
C101        C123   1.474       .  S
C101        O336   1.293       .  A
C102        C937   1.463   1_554  S
C102        O595   1.293       .  A
C103        C230   1.465       .  S
C103       O1112   1.293   1_455  A
C104        C428   1.478       .  S
C104        O599   1.288   1_546  A
H105       O1138   0.965   1_455  S
O106       Eu607   2.341   1_545  S
O106      Eu1124   2.339       .  S
O106       H1137   0.965       .  S
H107        O624   0.966       .  S
O108       Eu610   2.351       .  S
O108        H623   0.966       .  S
C109        C110   1.404       .  A
C109        C114   1.395       .  A
C109        H116   1.083       .  S
C110        C111   1.413       .  A
C111        C112   1.400       .  A
C111        F118   1.357       .  S
C112        C113   1.399       .  A
C112        H117   1.083       .  S
C113        C114   1.405       .  A
C114        F115   1.358       .  S
C119        C120   1.409       .  A
C119        C124   1.402       .  A
C119        H126   1.083       .  S
C120        C121   1.406       .  A
C121        C122   1.392       .  A
C121        F128   1.358       .  S
C122        C123   1.404       .  A
C122        H127   1.084       .  S
C123        C124   1.404       .  A
C124        F125   1.357       .  S
C129        C134   1.393       .  A
C129       C1162   1.398       .  A
C129        H136   1.084       .  S
C130        C131   1.403       .  A
C130       C1161   1.398   1_455  A
C131        C132   1.403       .  A
C131        F138   1.357       .  S
C132       C1165   1.409   1_455  A
C132        H137   1.083       .  S
C133        C134   1.413       .  A
C133       C1164   1.409       .  A
C134        F135   1.358       .  S
C139        C144   1.387       .  A
C139       C1172   1.400       .  A
C139        H146   1.084       .  S
C140        C141   1.408       .  A
C140       C1171   1.400   1_455  A
C141        C142   1.407       .  A
C141        F148   1.357       .  S
C142       C1175   1.408   1_455  A
C142        H147   1.083       .  S
C143        C144   1.411       .  A
C143       C1174   1.408       .  A
C144        F145   1.358       .  S
C149        C150   1.409       .  A
C149       C1186   1.403       .  A
C149        H156   1.083       .  S
C150        C151   1.406       .  A
C151        C152   1.397       .  A
C151        F158   1.357       .  S
C152        C153   1.407       .  A
C152        H157   1.083       .  S
C153       C1186   1.406       .  A
C153       C1071   1.488       .  S
C154       C1181   1.403   1_455  A
C154       C1185   1.406   1_455  A
C154        F155   1.357       .  S
C159        C160   1.403       .  A
C159        C164   1.396       .  A
C159        H166   1.083       .  S
C160        C161   1.414       .  A
C161        C936   1.397       .  A
C161        F684   1.358   1_545  S
C162        C935   1.397   1_554  A
C162        C937   1.397   1_554  A
C162        H167   1.084       .  S
C163        C164   1.405       .  A
C163        C936   1.397       .  A
C163        C876   1.463       .  S
C164        F165   1.357       .  S
F168        C677   1.358       .  S
C169        C170   1.408       .  A
C169        C174   1.406       .  A
C169        H176   1.083       .  S
C170        C171   1.407   1_545  A
C170        C362   1.478       .  S
C171        C172   1.387   1_565  A
C171        F952   1.358       .  S
C172        C173   1.401       .  A
C172        H693   1.084   1_545  S
C173        C174   1.406       .  A
C174        F175   1.357       .  S
H177        C688   1.084       .  S
F178        C945   1.358   1_554  S
C179        C180   1.396       .  A
C179        C184   1.387       .  A
C179        H186   1.084       .  S
C180        C181   1.404       .  A
C181        C182   1.407       .  A
C181        F188   1.357       .  S
C182        C183   1.410       .  A
C182        H187   1.083       .  S
C183        C184   1.413       .  A
C184        F185   1.358       .  S
C189        C190   1.404       .  A
C189        C194   1.396       .  A
C189        H196   1.083       .  S
C190        C191   1.415       .  A
C191        C192   1.399       .  A
C191        F198   1.357       .  S
C192        C193   1.398       .  A
C192        H197   1.084       .  S
C193        C194   1.405       .  A
C194        F195   1.358       .  S
C199        C200   1.403       .  A
C199        C204   1.398       .  A
C199        H206   1.083       .  S
C200        C201   1.412       .  A
C201        C718   1.402       .  A
C201        F724   1.357       .  S
C202        C203   1.405       .  A
C202        C717   1.402       .  A
C202        H207   1.083       .  S
C203        C720   1.411   1_545  A
C204        C719   1.411       .  A
C204        F205   1.357       .  S
F208        C717   1.357       .  S
C209        C210   1.408       .  A
C209        C214   1.409       .  A
C209        H216   1.083       .  S
C210        C211   1.407       .  A
C211        C212   1.386       .  A
C211        F218   1.359       .  S
C212        C213   1.401       .  A
C212        H217   1.084       .  S
C213        C214   1.407       .  A
C214        F215   1.357       .  S
C219        C220   1.412       .  A
C219        C224   1.399       .  A
C219        H226   1.083       .  S
C220        C221   1.407       .  A
C221        C222   1.395       .  A
C221        F228   1.358       .  S
C222        C223   1.405       .  A
C222        H227   1.084       .  S
C223        C224   1.399       .  A
C224        F225   1.357       .  S
C229        C230   1.399       .  A
C229        C234   1.399       .  A
C229        H236   1.083       .  S
C230        C231   1.404       .  A
C231        C490   1.398       .  A
C231        F496   1.357   1_554  S
C232        C489   1.398       .  A
C232        C491   1.403       .  A
C232        H237   1.083       .  S
C233        C234   1.410       .  A
C233        C490   1.403       .  A
C233        C263   1.481       .  S
C234        F235   1.358       .  S
F238        C489   1.357       .  S
C239        C244   1.404       .  A
C239        C498   1.407       .  A
C239        H246   1.083       .  S
C240        C241   1.410       .  A
C240        C497   1.407   1_554  A
C241        C242   1.395       .  A
C241        F248   1.358       .  S
C242        C243   1.400       .  A
C242        H247   1.084       .  S
C243        C502   1.407   1_554  A
C243        C259   1.479       .  S
C244        C501   1.407       .  A
C244        F245   1.357       .  S
C249        C250   1.404       .  A
C249        C254   1.397       .  A
C249        H256   1.083       .  S
C250        C251   1.411       .  A
C251        C252   1.405       .  A
C251        F258   1.358       .  S
C252        C253   1.407       .  A
C252        H257   1.083       .  S
C253        C254   1.409       .  A
C254        F255   1.357       .  S
C259        C264   1.400       .  A
C260        C261   1.410       .  A
C260        H265   1.084       .  S
C261        C262   1.407       .  A
C261        C508   1.492       .  S
C262        H266   1.084       .  S
C263        C264   1.401       .  A
C264        H267   1.084       .  S
C268        C269   1.408       .  A
C268        C273   1.400       .  A
C268        C471   1.479       .  S
C269        C270   1.412       .  A
C269        H274   1.083       .  S
C270        C271   1.409       .  A
C270        C511   1.493       .  S
C271        C272   1.406       .  A
C271        H275   1.083       .  S
C272        C273   1.397       .  A
C272        C478   1.489       .  S
C273        H276   1.084       .  S
C277        C278   1.403       .  A
C277        C282   1.399       .  A
C277        C438   1.472       .  S
C278        C279   1.409       .  A
C278        H283   1.084       .  S
C279        C280   1.408       .  A
C279        C458   1.491       .  S
C280        C281   1.408       .  A
C280        H284   1.083       .  S
C281        C282   1.400       .  A
C281        C448   1.488       .  S
C282        H285   1.084       .  S
C286        C287   1.406       .  A
C286        C291   1.400       .  A
C286        C431   1.478       .  S
C287        C288   1.411       .  A
C287        H292   1.084       .  S
C288        C289   1.408       .  A
C288        C461   1.491       .  S
C289        C290   1.404       .  A
C289        H293   1.083       .  S
C290        C291   1.396       .  A
C290        C418   1.483       .  S
C291        H294   1.084       .  S
C295        C296   1.407       .  A
C295        C300   1.403       .  A
C295        C388   1.472       .  S
C296        C297   1.406       .  A
C296        H301   1.084       .  S
C297        C298   1.403       .  A
C297       C1443   1.488   1_455  S
C298        C299   1.405       .  A
C298        H302   1.084       .  S
C299        C300   1.400       .  A
C299        C398   1.481       .  S
C300        H303   1.084       .  S
C304        C305   1.403       .  A
C304        C309   1.407       .  A
C304        C378   1.484       .  S
C305        C306   1.402       .  A
C305        H310   1.083       .  S
C306        C307   1.407       .  A
C306        C368   1.486       .  S
C307        C308   1.405       .  A
C307        H311   1.083       .  S
C308        C309   1.407       .  A
C308        C408   1.490       .  S
C309        H312   1.083       .  S
O313        C324   1.294       .  A
O313      Eu1381   2.475   1_455  S
O314        C325   1.293       .  A
O314       Eu348   2.476       .  S
O315        C326   1.295       .  A
O315      Eu1353   2.483   1_455  S
O316        C327   1.295       .  A
O316       Eu321   2.485       .  S
O317        C327   1.285       .  A
O317       Eu351   2.418       .  S
O318        C326   1.286       .  A
O318       Eu866   2.425       .  S
O319        C325   1.287       .  A
O319       Eu321   2.432       .  S
O320        C324   1.290       .  A
O320      Eu1353   2.447   1_455  S
Eu321      O1347   2.483       .  S
Eu321      O1352   2.447       .  S
Eu321       O331   2.354       .  S
Eu321      O1355   2.354       .  S
Eu321       O322   2.339       .  S
Eu321       O329   2.362       .  S
O322       Eu351   2.336       .  S
O322       Eu348   2.338       .  S
O323      Eu1353   2.354   1_455  S
O323      Eu1381   2.358   1_455  S
O323       Eu866   2.355       .  S
C324        C498   1.483       .  S
C325        C371   1.467       .  S
C326        C441   1.486       .  S
C327        C481   1.468       .  S
H328        O329   0.966       .  S
O329      Eu1898   2.355       .  S
O329       Eu348   2.359       .  S
H330        O331   0.966       .  S
O331       Eu349   2.357       .  S
O331       Eu351   2.359       .  S
O332        C355   1.295       .  A
O332       Eu864   2.488       .  S
O333        C872   1.295       .  A
O334       C1389   1.293   1_455  A
O334       Eu350   2.472       .  S
O335        C358   1.293       .  A
O335       Eu351   2.476       .  S
O336       Eu351   2.476       .  S
O337        C876   1.293       .  A
O337       Eu350   2.476       .  S
O338       C1393   1.293       .  A
O338       Eu352   2.477       .  S
O339        C362   1.292       .  A
O339       Eu352   2.471       .  S
O340        C361   1.288       .  A
O340       Eu350   2.440       .  S
O341        C878   1.288       .  A
O341       Eu351   2.433       .  S
O342        C357   1.289       .  A
O342       Eu864   2.442       .  S
O343        C360   1.287       .  A
O343      Eu1381   2.433   1_455  S
O344        C359   1.288       .  A
O345        C358   1.287       .  A
O345       Eu348   2.432       .  S
O346        C355   1.286       .  A
O346       Eu352   2.423       .  S
O347        C356   1.286       .  A
Eu348       O848   2.488       .  S
Eu348       O858   2.442       .  S
Eu348       O366   2.360       .  S
Eu348       O870   2.351       .  S
Eu349      O1345   2.475       .  S
Eu349      O1375   2.433       .  S
Eu349      O1355   2.358       .  S
Eu349       O353   2.356       .  S
Eu349       O880   2.341       .  S
Eu350       O834   2.425   1_545  S
Eu350       O839   2.355   1_545  S
Eu350      O1877   2.355   1_445  S
Eu350      O1396   2.339   1_455  S
Eu350      O1386   2.352   1_455  S
Eu351       O353   2.348       .  S
Eu351       O366   2.352       .  S
Eu352       O869   2.353   1_545  S
Eu352       O364   2.336       .  S
Eu352       O882   2.351       .  S
Eu352       O354   2.352       .  S
O353       Eu868   2.353       .  S
O354       Eu864   2.351       .  S
O354      Eu1382   2.352       .  S
C355        C468   1.478       .  S
C356        C401   1.483       .  S
C356        O849   1.295       .  A
C357        C391   1.486       .  S
C357       O1366   1.293       .  A
C358        C451   1.467       .  S
C359        C381   1.474       .  S
C360        C679   1.463       .  S
C360        O853   1.293       .  A
C361        C488   1.465       .  S
C361       O1370   1.293   1_455  A
C362        O857   1.288   1_545  A
H363       O1396   0.965   1_455  S
O364       Eu865   2.341   1_545  S
O364      Eu1382   2.339       .  S
O364       H1395   0.965       .  S
H365        O882   0.966       .  S
O366       Eu868   2.351       .  S
O366        H881   0.966       .  S
C367        C368   1.404       .  A
C367        C372   1.395       .  A
C367        H374   1.083       .  S
C368        C369   1.413       .  A
C369        C370   1.400       .  A
C369        F376   1.357       .  S
C370        C371   1.399       .  A
C370        H375   1.083       .  S
C371        C372   1.405       .  A
C372        F373   1.358       .  S
C377        C378   1.409       .  A
C377        C382   1.402       .  A
C377        H384   1.083       .  S
C378        C379   1.406       .  A
C379        C380   1.392       .  A
C379        F386   1.358       .  S
C380        C381   1.404       .  A
C380        H385   1.084       .  S
C381        C382   1.404       .  A
C382        F383   1.357       .  S
C387       C1420   1.398       .  A
C387        C392   1.393       .  A
C387        H394   1.084       .  S
C388       C1419   1.398   1_455  A
C388        C389   1.403       .  A
C389        C390   1.403       .  A
C389        F396   1.357       .  S
C390       C1423   1.409   1_455  A
C390        H395   1.083       .  S
C391       C1422   1.409       .  A
C391        C392   1.413       .  A
C392        F393   1.358       .  S
C397       C1430   1.400       .  A
C397        C402   1.387       .  A
C397        H404   1.084       .  S
C398       C1429   1.400   1_455  A
C398        C399   1.408       .  A
C399        C400   1.407       .  A
C399        F406   1.357       .  S
C400       C1433   1.408   1_455  A
C400        H405   1.083       .  S
C401       C1432   1.408       .  A
C401        C402   1.411       .  A
C402        F403   1.358       .  S
C407        C408   1.409       .  A
C407       C1444   1.403       .  A
C407        H414   1.083       .  S
C408        C409   1.406       .  A
C409        C410   1.397       .  A
C409        F416   1.357       .  S
C410        C411   1.407       .  A
C410        H415   1.083       .  S
C411       C1444   1.406       .  A
C411       C1329   1.488       .  S
C412       C1439   1.403   1_455  A
C412       C1443   1.406   1_455  A
C412        F413   1.357       .  S
C417        C418   1.403       .  A
C417        C422   1.396       .  A
C417        H424   1.083       .  S
C418        C419   1.414       .  A
C419        C678   1.397   1_556  A
C419        F942   1.358   1_545  S
C420        C677   1.397       .  A
C420        C679   1.397       .  A
C420        H425   1.084       .  S
C421        C678   1.397   1_556  A
C421        C422   1.405       .  A
C421        C618   1.463   1_556  S
C422        F423   1.357       .  S
F426        C935   1.358       .  S
C427        C428   1.408       .  A
C427        C432   1.406       .  A
C427        H434   1.083       .  S
C428        C429   1.407   1_545  A
C429        C430   1.387   1_565  A
C429        F694   1.358   1_556  S
C430        C431   1.401       .  A
C430        H951   1.084   1_545  S
C431        C432   1.406       .  A
C432        F433   1.357       .  S
H435        C946   1.084       .  S
F436        C687   1.358       .  S
C437        C438   1.396       .  A
C437        C442   1.387       .  A
C437        H444   1.084       .  S
C438        C439   1.404       .  A
C439        C440   1.407       .  A
C439        F446   1.357       .  S
C440        C441   1.410       .  A
C440        H445   1.083       .  S
C441        C442   1.413       .  A
C442        F443   1.358       .  S
C447        C448   1.404       .  A
C447        C452   1.396       .  A
C447        H454   1.083       .  S
C448        C449   1.415       .  A
C449        C450   1.399       .  A
C449        F456   1.357       .  S
C450        C451   1.398       .  A
C450        H455   1.084       .  S
C451        C452   1.405       .  A
C452        F453   1.358       .  S
C457        C458   1.403       .  A
C457        C462   1.398       .  A
C457        H464   1.083       .  S
C458        C459   1.412       .  A
C459        C976   1.402       .  A
C459        F982   1.357       .  S
C460        C975   1.402       .  A
C460        C461   1.405       .  A
C460        H465   1.083       .  S
C461        C978   1.411   1_545  A
C462        C977   1.411       .  A
C462        F463   1.357       .  S
F466        C975   1.357       .  S
C467        C468   1.408       .  A
C467        C472   1.409       .  A
C467        H474   1.083       .  S
C468        C469   1.407       .  A
C469        C470   1.386       .  A
C469        F476   1.359       .  S
C470        C471   1.401       .  A
C470        H475   1.084       .  S
C471        C472   1.407       .  A
C472        F473   1.357       .  S
C477        C478   1.412       .  A
C477        C482   1.399       .  A
C477        H484   1.083       .  S
C478        C479   1.407       .  A
C479        C480   1.395       .  A
C479        F486   1.358       .  S
C480        C481   1.405       .  A
C480        H485   1.084       .  S
C481        C482   1.399       .  A
C482        F483   1.357       .  S
C487        C488   1.399       .  A
C487        C492   1.399       .  A
C487        H494   1.083       .  S
C488        C489   1.404       .  A
C490        H495   1.083   1_554  S
C491        C492   1.410       .  A
C492        F493   1.358       .  S
C497        C502   1.404       .  A
C497        H504   1.083       .  S
C498        C499   1.410       .  A
C499        C500   1.395       .  A
C499        F506   1.358       .  S
C500        C501   1.400       .  A
C500        H505   1.084       .  S
C502        F503   1.357       .  S
C507        C508   1.404       .  A
C507        C512   1.397       .  A
C507        H514   1.083       .  S
C508        C509   1.411       .  A
C509        C510   1.405       .  A
C509        F516   1.358       .  S
C510        C511   1.407       .  A
C510        H515   1.083       .  S
C511        C512   1.409       .  A
C512        F513   1.357       .  S
C517        C776   1.405       .  A
C517        C522   1.400       .  A
C517       C1017   1.479       .  S
C518        C775   1.405       .  A
C518        C519   1.410       .  A
C518        H523   1.084       .  S
C519        C520   1.407       .  A
C519        C766   1.492       .  S
C520        C779   1.406       .  A
C520        H524   1.084       .  S
C521        C778   1.406       .  A
C521        C522   1.401       .  A
C521       C1007   1.481       .  S
C522        H525   1.084       .  S
C526        C527   1.408       .  A
C526        C531   1.400       .  A
C526        C729   1.479       .  S
C527        C528   1.412       .  A
C527        H532   1.083       .  S
C528        C529   1.409       .  A
C528        C769   1.493       .  S
C529        C530   1.406       .  A
C529        H533   1.083       .  S
C530        C531   1.397       .  A
C530        C736   1.489       .  S
C531        H534   1.084       .  S
C535        C536   1.403       .  A
C535        C540   1.399       .  A
C535        C696   1.472       .  S
C536        C537   1.409       .  A
C536        H541   1.084       .  S
C537        C538   1.408       .  A
C537        C716   1.491       .  S
C538        C539   1.408       .  A
C538        H542   1.083       .  S
C539        C540   1.400       .  A
C539        C706   1.488       .  S
C540        H543   1.084       .  S
C544        C545   1.406       .  A
C544        C549   1.400       .  A
C544        C689   1.478       .  S
C545        C546   1.411       .  A
C545        H550   1.084       .  S
C546        C547   1.408       .  A
C546        C719   1.491       .  S
C547        C548   1.404       .  A
C547        H551   1.083       .  S
C548        C549   1.396       .  A
C548        C676   1.483       .  S
C549        H552   1.084       .  S
C553        C554   1.407       .  A
C553        C558   1.403       .  A
C553        C646   1.472       .  S
C554        C555   1.406       .  A
C554        H559   1.084       .  S
C555        C556   1.403       .  A
C555       C1701   1.488   1_455  S
C556        C557   1.405       .  A
C556        H560   1.084       .  S
C557        C558   1.400       .  A
C557        C656   1.481       .  S
C558        H561   1.084       .  S
C562        C563   1.403       .  A
C562        C567   1.407       .  A
C562        C636   1.484       .  S
C563        C564   1.402       .  A
C563        H568   1.083       .  S
C564        C565   1.407       .  A
C564        C626   1.486       .  S
C565        C566   1.405       .  A
C565        H569   1.083       .  S
C566        C567   1.407       .  A
C566        C666   1.490       .  S
C567        H570   1.083       .  S
O571        C582   1.294       .  A
O571      Eu1639   2.475   1_455  S
O572        C583   1.293       .  A
O572       Eu606   2.476   1_565  S
O573        C584   1.295       .  A
O573      Eu1611   2.483   1_455  S
O574        C585   1.295       .  A
O574       Eu579   2.485       .  S
O575        C585   1.285       .  A
O575       Eu609   2.418       .  S
O576        C584   1.286       .  A
O577        C583   1.287       .  A
O577       Eu579   2.432       .  S
O578        C582   1.290       .  A
O578      Eu1611   2.447   1_455  S
Eu579      O1605   2.483       .  S
Eu579      O1610   2.447       .  S
Eu579       O589   2.354       .  S
Eu579      O1613   2.354       .  S
Eu579       O580   2.339       .  S
Eu579       O587   2.362       .  S
O580       Eu609   2.336       .  S
O580       Eu606   2.338   1_565  S
O581      Eu1611   2.354   1_455  S
O581      Eu1639   2.358   1_455  S
C582        C756   1.483       .  S
C583        C629   1.467       .  S
C584        C699   1.486       .  S
C585        C739   1.468       .  S
H586        O587   0.966       .  S
O587      Eu1124   2.355   1_565  S
O587       Eu606   2.359   1_565  S
H588        O589   0.966       .  S
O589       Eu607   2.357       .  S
O589       Eu609   2.359       .  S
O590        C613   1.295       .  A
O591       Eu865   2.489   1_545  S
O592       C1647   1.293   1_455  A
O592       Eu608   2.472       .  S
O593        C616   1.293       .  A
O593       Eu609   2.476       .  S
O594        C875   1.293       .  A
O594       Eu609   2.476   1_556  S
O595       Eu608   2.476       .  S
O596       C1651   1.293       .  A
O596       Eu610   2.477       .  S
O597        C620   1.292       .  A
O597       Eu610   2.471   1_556  S
O598        C619   1.288       .  A
O598       Eu608   2.440       .  S
O599       Eu609   2.433       .  S
O600        C615   1.289       .  A
O601        C618   1.287   1_566  A
O601      Eu1639   2.433   1_456  S
O602        C617   1.288       .  A
O602       Eu865   2.434       .  S
O603        C616   1.287       .  A
O603       Eu606   2.432   1_565  S
O604        C613   1.286       .  A
O604       Eu610   2.423       .  S
O605        C614   1.286       .  A
O605       Eu868   2.420       .  S
Eu606       O624   2.360       .  S
Eu607      O1603   2.475       .  S
Eu607       O849   2.489   1_564  S
Eu607      O1633   2.433   1_554  S
Eu607       O860   2.434   1_554  S
Eu607      O1613   2.358       .  S
Eu607       O611   2.356       .  S
Eu608      O1103   2.355   1_455  S
Eu608      O1654   2.339   1_455  S
Eu608      O1644   2.352   1_455  S
Eu609       O611   2.348       .  S
Eu609       O624   2.352   1_565  S
Eu610       O863   2.420   1_554  S
Eu610       O622   2.336       .  S
Eu610       O612   2.352       .  S
O612      Eu1640   2.352       .  S
C613        C726   1.478       .  S
C614        C659   1.483       .  S
C615        C649   1.486       .  S
C615       O1624   1.293       .  A
C616        C709   1.467       .  S
C617        C639   1.474       .  S
C617        O852   1.293       .  A
C619        C746   1.465       .  S
C619       O1628   1.293   1_455  A
C620        C944   1.478       .  S
H621       O1654   0.965   1_455  S
O622      Eu1640   2.339       .  S
O622       H1653   0.965       .  S
C625        C626   1.404       .  A
C625        C630   1.395       .  A
C625        H632   1.083       .  S
C626        C627   1.413       .  A
C627        C628   1.400       .  A
C627        F634   1.357       .  S
C628        C629   1.399       .  A
C628        H633   1.083       .  S
C629        C630   1.405       .  A
C630        F631   1.358       .  S
C635        C636   1.409       .  A
C635        C640   1.402       .  A
C635        H642   1.083       .  S
C636        C637   1.406       .  A
C637        C638   1.392       .  A
C637        F644   1.358       .  S
C638        C639   1.404       .  A
C638        H643   1.084       .  S
C639        C640   1.404       .  A
C640        F641   1.357       .  S
C645       C1678   1.398       .  A
C645        C650   1.393       .  A
C645        H652   1.084       .  S
C646       C1677   1.398   1_455  A
C646        C647   1.403       .  A
C647        C648   1.403       .  A
C647        F654   1.357       .  S
C648       C1681   1.409   1_455  A
C648        H653   1.083       .  S
C649       C1680   1.409       .  A
C649        C650   1.413       .  A
C650        F651   1.358       .  S
C655       C1688   1.400       .  A
C655        C660   1.387       .  A
C655        H662   1.084       .  S
C656       C1687   1.400   1_455  A
C656        C657   1.408       .  A
C657        C658   1.407       .  A
C657        F664   1.357       .  S
C658       C1691   1.408   1_455  A
C658        H663   1.083       .  S
C659       C1690   1.408       .  A
C659        C660   1.411       .  A
C660        F661   1.358       .  S
C665        C666   1.409       .  A
C665       C1702   1.403       .  A
C665        H672   1.083       .  S
C666        C667   1.406       .  A
C667        C668   1.397       .  A
C667        F674   1.357       .  S
C668        C669   1.407       .  A
C668        H673   1.083       .  S
C669       C1702   1.406       .  A
C669       C1587   1.488       .  S
C670       C1697   1.403   1_455  A
C670       C1701   1.406   1_455  A
C670        F671   1.357       .  S
C675        C676   1.403       .  A
C675        C680   1.396       .  A
C675        H682   1.083       .  S
C676        C677   1.414       .  A
C678        H683   1.084   1_545  S
C679        C680   1.405       .  A
C680        F681   1.357       .  S
C685        C686   1.408       .  A
C685        C690   1.406       .  A
C685        H692   1.083       .  S
C686        C687   1.407       .  A
C686        C878   1.478       .  S
C687        C688   1.387       .  A
C688        C689   1.401       .  A
C689        C690   1.406       .  A
C690        F691   1.357       .  S
C695        C696   1.396       .  A
C695        C700   1.387       .  A
C695        H702   1.084       .  S
C696        C697   1.404       .  A
C697        C698   1.407       .  A
C697        F704   1.357       .  S
C698        C699   1.410       .  A
C698        H703   1.083       .  S
C699        C700   1.413       .  A
C700        F701   1.358   1_565  S
C705        C706   1.404       .  A
C705        C710   1.396       .  A
C705        H712   1.083       .  S
C706        C707   1.415       .  A
C707        C708   1.399       .  A
C707        F714   1.357       .  S
C708        C709   1.398       .  A
C708        H713   1.084       .  S
C709        C710   1.405       .  A
C710        F711   1.358       .  S
C715        C716   1.403       .  A
C715        C720   1.398       .  A
C715        H722   1.083       .  S
C716        C717   1.412   1_565  A
C718        C719   1.405       .  A
C718        H723   1.083       .  S
C720        F721   1.357       .  S
C725        C726   1.408       .  A
C725        C730   1.409       .  A
C725        H732   1.083       .  S
C726        C727   1.407       .  A
C727        C728   1.386       .  A
C727        F734   1.359       .  S
C728        C729   1.401       .  A
C728        H733   1.084       .  S
C729        C730   1.407       .  A
C730        F731   1.357       .  S
C735        C736   1.412       .  A
C735        C740   1.399       .  A
C735        H742   1.083       .  S
C736        C737   1.407       .  A
C737        C738   1.395       .  A
C737        F744   1.358       .  S
C738        C739   1.405       .  A
C738        H743   1.084       .  S
C739        C740   1.399       .  A
C740        F741   1.357       .  S
C745        C746   1.399       .  A
C745        C750   1.399       .  A
C745        H752   1.083       .  S
C746        C747   1.404       .  A
C747       C1006   1.398       .  A
C747       F1012   1.357   1_554  S
C748       C1005   1.398       .  A
C748       C1007   1.403       .  A
C748        H753   1.083       .  S
C749       C1006   1.403       .  A
C749        C750   1.410       .  A
C749        C779   1.481       .  S
C750        F751   1.358       .  S
F754       C1005   1.357       .  S
C755       C1014   1.407       .  A
C755        C760   1.404       .  A
C755        H762   1.083       .  S
C756       C1013   1.407   1_554  A
C756        C757   1.410       .  A
C757        C758   1.395       .  A
C757        F764   1.358       .  S
C758        C759   1.400       .  A
C758        H763   1.084       .  S
C759       C1018   1.407   1_554  A
C759        C775   1.479       .  S
C760       C1017   1.407       .  A
C760        F761   1.357       .  S
C765        C766   1.404       .  A
C765        C770   1.397       .  A
C765        H772   1.083       .  S
C766        C767   1.411       .  A
C767        C768   1.405       .  A
C767        F774   1.358       .  S
C768        C769   1.407       .  A
C768        H773   1.083       .  S
C769        C770   1.409       .  A
C770        F771   1.357       .  S
C775        C780   1.400       .  A
C776        C777   1.410       .  A
C776        H781   1.084       .  S
C777        C778   1.407       .  A
C777       C1024   1.492       .  S
C778        H782   1.084       .  S
C779        C780   1.401       .  A
C780        H783   1.084       .  S
C784        C785   1.408       .  A
C784        C789   1.400       .  A
C784        C987   1.479       .  S
C785        C786   1.412       .  A
C785        H790   1.083       .  S
C786        C787   1.409       .  A
C786       C1027   1.493       .  S
C787        C788   1.406       .  A
C787        H791   1.083       .  S
C788        C789   1.397       .  A
C788        C994   1.489       .  S
C789        H792   1.084       .  S
C793        C794   1.403       .  A
C793        C798   1.399       .  A
C793        C954   1.472       .  S
C794        C795   1.409       .  A
C794        H799   1.084       .  S
C795        C796   1.408       .  A
C795        C974   1.491       .  S
C796        C797   1.408       .  A
C796        H800   1.083       .  S
C797        C798   1.400       .  A
C797        C964   1.488       .  S
C798        H801   1.084       .  S
C802        C803   1.406       .  A
C802        C807   1.400       .  A
C802        C947   1.478       .  S
C803        C804   1.411       .  A
C803        H808   1.084       .  S
C804        C805   1.408       .  A
C804        C977   1.491       .  S
C805        C806   1.404       .  A
C805        H809   1.083       .  S
C806        C807   1.396       .  A
C806        C934   1.483       .  S
C807        H810   1.084       .  S
C811        C812   1.407       .  A
C811        C816   1.403       .  A
C811        C904   1.472       .  S
C812        C813   1.406       .  A
C812        H817   1.084       .  S
C813        C814   1.403       .  A
C813       C1959   1.488   1_455  S
C814        C815   1.405       .  A
C814        H818   1.084       .  S
C815        C816   1.400       .  A
C815        C914   1.481       .  S
C816        H819   1.084       .  S
C820        C821   1.403       .  A
C820        C825   1.407       .  A
C820        C894   1.484       .  S
C821        C822   1.402       .  A
C821        H826   1.083       .  S
C822        C823   1.407       .  A
C822        C884   1.486       .  S
C823        C824   1.405       .  A
C823        H827   1.083       .  S
C824        C825   1.407       .  A
C824        C924   1.490       .  S
C825        H828   1.083       .  S
O829        C840   1.294       .  A
O829      Eu1897   2.475   1_455  S
O830        C841   1.293       .  A
O830       Eu864   2.476   1_565  S
O831        C842   1.295       .  A
O831      Eu1869   2.483   1_455  S
O832        C843   1.295       .  A
O832       Eu837   2.485       .  S
O833        C843   1.285       .  A
O833       Eu867   2.418       .  S
O834        C842   1.286       .  A
O835        C841   1.287       .  A
O835       Eu837   2.432       .  S
O836        C840   1.290       .  A
O836      Eu1869   2.447   1_455  S
Eu837      O1863   2.483       .  S
Eu837      O1868   2.447       .  S
Eu837       O847   2.354       .  S
Eu837      O1871   2.354       .  S
Eu837       O838   2.339       .  S
Eu837       O845   2.362       .  S
O838       Eu867   2.336       .  S
O838       Eu864   2.338   1_565  S
O839      Eu1869   2.354   1_455  S
O839      Eu1897   2.358   1_455  S
C840       C1014   1.483       .  S
C841        C887   1.467       .  S
C842        C957   1.486       .  S
C843        C997   1.468       .  S
H844        O845   0.966       .  S
O845      Eu1382   2.355   1_565  S
O845       Eu864   2.359   1_565  S
H846        O847   0.966       .  S
O847       Eu865   2.357       .  S
O847       Eu867   2.359       .  S
O848        C871   1.295       .  A
O850       C1905   1.293   1_455  A
O850       Eu866   2.472       .  S
O851        C874   1.293       .  A
O851       Eu867   2.476       .  S
O852       Eu867   2.476       .  S
O853       Eu866   2.476       .  S
O854       C1909   1.293       .  A
O854       Eu868   2.477       .  S
O855        C878   1.292       .  A
O855       Eu868   2.471       .  S
O856        C877   1.288       .  A
O856       Eu866   2.440       .  S
O857       Eu867   2.433       .  S
O858        C873   1.289       .  A
O859        C876   1.287   1_565  A
O859      Eu1897   2.433   1_455  S
O860        C875   1.288       .  A
O861        C874   1.287       .  A
O861       Eu864   2.432   1_565  S
O862        C871   1.286       .  A
O862       Eu868   2.423       .  S
O863        C872   1.286       .  A
Eu864       O882   2.360       .  S
Eu865      O1861   2.475       .  S
Eu865      O1891   2.433       .  S
Eu865      O1871   2.358       .  S
Eu865       O869   2.356       .  S
Eu866      O1361   2.355   1_455  S
Eu866      O1912   2.339   1_455  S
Eu866      O1902   2.352   1_455  S
Eu867       O869   2.348       .  S
Eu867       O882   2.352   1_565  S
Eu868       O880   2.336       .  S
Eu868       O870   2.352       .  S
O870      Eu1898   2.352       .  S
C871        C984   1.478       .  S
C872        C917   1.483       .  S
C873        C907   1.486       .  S
C873       O1882   1.293       .  A
C874        C967   1.467       .  S
C875        C897   1.474       .  S
C877       C1004   1.465       .  S
C877       O1886   1.293   1_455  A
H879       O1912   0.965   1_455  S
O880      Eu1898   2.339       .  S
O880       H1911   0.965       .  S
C883        C884   1.404       .  A
C883        C888   1.395       .  A
C883        H890   1.083       .  S
C884        C885   1.413       .  A
C885        C886   1.400       .  A
C885        F892   1.357       .  S
C886        C887   1.399       .  A
C886        H891   1.083       .  S
C887        C888   1.405       .  A
C888        F889   1.358       .  S
C893        C894   1.409       .  A
C893        C898   1.402       .  A
C893        H900   1.083       .  S
C894        C895   1.406       .  A
C895        C896   1.392       .  A
C895        F902   1.358       .  S
C896        C897   1.404       .  A
C896        H901   1.084       .  S
C897        C898   1.404       .  A
C898        F899   1.357       .  S
C903       C1936   1.398       .  A
C903        C908   1.393       .  A
C903        H910   1.084       .  S
C904       C1935   1.398   1_455  A
C904        C905   1.403       .  A
C905        C906   1.403       .  A
C905        F912   1.357       .  S
C906       C1939   1.409   1_455  A
C906        H911   1.083       .  S
C907       C1938   1.409       .  A
C907        C908   1.413       .  A
C908        F909   1.358       .  S
C913       C1946   1.400       .  A
C913        C918   1.387       .  A
C913        H920   1.084       .  S
C914       C1945   1.400   1_455  A
C914        C915   1.408       .  A
C915        C916   1.407       .  A
C915        F922   1.357       .  S
C916       C1949   1.408   1_455  A
C916        H921   1.083       .  S
C917       C1948   1.408       .  A
C917        C918   1.411       .  A
C918        F919   1.358       .  S
C923        C924   1.409       .  A
C923       C1960   1.403       .  A
C923        H930   1.083       .  S
C924        C925   1.406       .  A
C925        C926   1.397       .  A
C925        F932   1.357       .  S
C926        C927   1.407       .  A
C926        H931   1.083       .  S
C927       C1960   1.406       .  A
C927       C1845   1.488       .  S
C928       C1955   1.403   1_455  A
C928       C1959   1.406   1_455  A
C928        F929   1.357       .  S
C933        C934   1.403       .  A
C933        C938   1.396       .  A
C933        H940   1.083       .  S
C934        C935   1.414       .  A
C936        H941   1.084   1_545  S
C937        C938   1.405       .  A
C938        F939   1.357       .  S
C943        C944   1.408       .  A
C943        C948   1.406       .  A
C943        H950   1.083       .  S
C944        C945   1.407       .  A
C945        C946   1.387       .  A
C946        C947   1.401       .  A
C947        C948   1.406       .  A
C948        F949   1.357       .  S
C953        C954   1.396       .  A
C953        C958   1.387       .  A
C953        H960   1.084       .  S
C954        C955   1.404       .  A
C955        C956   1.407       .  A
C955        F962   1.357       .  S
C956        C957   1.410       .  A
C956        H961   1.083       .  S
C957        C958   1.413       .  A
C958        F959   1.358   1_565  S
C963        C964   1.404       .  A
C963        C968   1.396       .  A
C963        H970   1.083       .  S
C964        C965   1.415       .  A
C965        C966   1.399       .  A
C965        F972   1.357       .  S
C966        C967   1.398       .  A
C966        H971   1.084       .  S
C967        C968   1.405       .  A
C968        F969   1.358       .  S
C973        C974   1.403       .  A
C973        C978   1.398       .  A
C973        H980   1.083       .  S
C974        C975   1.412   1_565  A
C976        C977   1.405       .  A
C976        H981   1.083       .  S
C978        F979   1.357       .  S
C983        C984   1.408       .  A
C983        C988   1.409       .  A
C983        H990   1.083       .  S
C984        C985   1.407       .  A
C985        C986   1.386       .  A
C985        F992   1.359       .  S
C986        C987   1.401       .  A
C986        H991   1.084       .  S
C987        C988   1.407       .  A
C988        F989   1.357       .  S
C993        C994   1.412       .  A
C993        C998   1.399       .  A
C993       H1000   1.083       .  S
C994        C995   1.407       .  A
C995        C996   1.395       .  A
C995       F1002   1.358       .  S
C996        C997   1.405       .  A
C996       H1001   1.084       .  S
C997        C998   1.399       .  A
C998        F999   1.357       .  S
C1003      C1004   1.399       .  A
C1003      C1008   1.399       .  A
C1003      H1010   1.083       .  S
C1004      C1005   1.404       .  A
C1006      H1011   1.083   1_554  S
C1007      C1008   1.410       .  A
C1008      F1009   1.358       .  S
C1013      C1018   1.404       .  A
C1013      H1020   1.083       .  S
C1014      C1015   1.410       .  A
C1015      C1016   1.395       .  A
C1015      F1022   1.358       .  S
C1016      C1017   1.400       .  A
C1016      H1021   1.084       .  S
C1018      F1019   1.357       .  S
C1023      C1024   1.404       .  A
C1023      C1028   1.397       .  A
C1023      H1030   1.083       .  S
C1024      C1025   1.411       .  A
C1025      C1026   1.405       .  A
C1025      F1032   1.358       .  S
C1026      C1027   1.407       .  A
C1026      H1031   1.083       .  S
C1027      C1028   1.409       .  A
C1028      F1029   1.357       .  S
C1033      C1292   1.405       .  A
C1033      C1038   1.400       .  A
C1033      C1533   1.479       .  S
C1034      C1291   1.405       .  A
C1034      C1035   1.410       .  A
C1034      H1039   1.084       .  S
C1035      C1036   1.407       .  A
C1035      C1282   1.492       .  S
C1036      C1295   1.406       .  A
C1036      H1040   1.084       .  S
C1037      C1294   1.406       .  A
C1037      C1038   1.401       .  A
C1037      C1523   1.481       .  S
C1038      H1041   1.084       .  S
C1042      C1043   1.408       .  A
C1042      C1047   1.400       .  A
C1042      C1245   1.479       .  S
C1043      C1044   1.412       .  A
C1043      H1048   1.083       .  S
C1044      C1045   1.409       .  A
C1044      C1285   1.493       .  S
C1045      C1046   1.406       .  A
C1045      H1049   1.083       .  S
C1046      C1047   1.397       .  A
C1046      C1252   1.489       .  S
C1047      H1050   1.084       .  S
C1051      C1052   1.403       .  A
C1051      C1056   1.399       .  A
C1051      C1212   1.472       .  S
C1052      C1053   1.409       .  A
C1052      H1057   1.084       .  S
C1053      C1054   1.408       .  A
C1053      C1232   1.491       .  S
C1054      C1055   1.408       .  A
C1054      H1058   1.083       .  S
C1055      C1056   1.400       .  A
C1055      C1222   1.488       .  S
C1056      H1059   1.084       .  S
C1060      C1061   1.406       .  A
C1060      C1065   1.400       .  A
C1060      C1205   1.478       .  S
C1061      C1062   1.411       .  A
C1061      H1066   1.084       .  S
C1062      C1063   1.408       .  A
C1062      C1235   1.491       .  S
C1063      C1064   1.404       .  A
C1063      H1067   1.083       .  S
C1064      C1065   1.396       .  A
C1064      C1192   1.483       .  S
C1065      H1068   1.084       .  S
C1069      C1070   1.407       .  A
C1069      C1074   1.403       .  A
C1069      C1162   1.472       .  S
C1070      C1071   1.406       .  A
C1070      H1075   1.084       .  S
C1071      C1072   1.403       .  A
C1072      C1073   1.405       .  A
C1072      H1076   1.084       .  S
C1073      C1074   1.400       .  A
C1073      C1172   1.481       .  S
C1074      H1077   1.084       .  S
C1078      C1079   1.403       .  A
C1078      C1083   1.407       .  A
C1078      C1152   1.484       .  S
C1079      C1080   1.402       .  A
C1079      H1084   1.083       .  S
C1080      C1081   1.407       .  A
C1080      C1142   1.486       .  S
C1081      C1082   1.405       .  A
C1081      H1085   1.083       .  S
C1082      C1083   1.407       .  A
C1082      C1182   1.490       .  S
C1083      H1086   1.083       .  S
O1087      C1098   1.294       .  A
O1088      C1099   1.293       .  A
O1088     Eu1122   2.476       .  S
O1089      C1100   1.295       .  A
O1090      C1101   1.295       .  A
O1090     Eu1095   2.485       .  S
O1091      C1101   1.285       .  A
O1091     Eu1125   2.418       .  S
O1092      C1100   1.286       .  A
O1092     Eu1640   2.425       .  S
O1093      C1099   1.287       .  A
O1093     Eu1095   2.432       .  S
O1094      C1098   1.290       .  A
Eu1095     O1105   2.354       .  S
Eu1095     O1096   2.339       .  S
Eu1095     O1103   2.362       .  S
O1096     Eu1125   2.336       .  S
O1096     Eu1122   2.338       .  S
O1097     Eu1640   2.355       .  S
C1098      C1272   1.483       .  S
C1099      C1145   1.467       .  S
C1100      C1215   1.486       .  S
C1101      C1255   1.468       .  S
H1102      O1103   0.966       .  S
O1103     Eu1122   2.359       .  S
H1104      O1105   0.966       .  S
O1105     Eu1123   2.357       .  S
O1105     Eu1125   2.359       .  S
O1106      C1129   1.295       .  A
O1106     Eu1638   2.488       .  S
O1107      C1646   1.295       .  A
O1107     Eu1381   2.489       .  S
O1108     Eu1124   2.472       .  S
O1109      C1132   1.293       .  A
O1109     Eu1125   2.476       .  S
O1110      C1391   1.293       .  A
O1110     Eu1125   2.476   1_556  S
O1111      C1650   1.293       .  A
O1111     Eu1124   2.476       .  S
O1112     Eu1126   2.477       .  S
O1113      C1136   1.292       .  A
O1113     Eu1126   2.471   1_556  S
O1114      C1135   1.288       .  A
O1114     Eu1124   2.440       .  S
O1115      C1652   1.288   1_554  A
O1115     Eu1125   2.433       .  S
O1116      C1131   1.289       .  A
O1116     Eu1638   2.442       .  S
O1117      C1134   1.287   1_556  A
O1118      C1133   1.288       .  A
O1118     Eu1381   2.434       .  S
O1119      C1132   1.287       .  A
O1119     Eu1122   2.432       .  S
O1120      C1129   1.286       .  A
O1120     Eu1126   2.423       .  S
O1121      C1130   1.286       .  A
O1121     Eu1384   2.420       .  S
Eu1122     O1622   2.488       .  S
Eu1122     O1632   2.442       .  S
Eu1122     O1140   2.360       .  S
Eu1122     O1644   2.351       .  S
Eu1123     O1365   2.489   1_554  S
Eu1123     O1376   2.434   1_554  S
Eu1123     O1127   2.356       .  S
Eu1123     O1654   2.341       .  S
Eu1124     O1608   2.425   1_545  S
Eu1124     O1613   2.355   1_545  S
Eu1125     O1127   2.348       .  S
Eu1125     O1140   2.352       .  S
Eu1126     O1379   2.420   1_554  S
Eu1126     O1643   2.353   1_545  S
Eu1126     O1138   2.336       .  S
Eu1126     O1656   2.351       .  S
Eu1126     O1128   2.352       .  S
O1127     Eu1642   2.353       .  S
O1128     Eu1638   2.351       .  S
C1129      C1242   1.478       .  S
C1130      C1175   1.483       .  S
C1130      O1623   1.295       .  A
C1131      C1165   1.486       .  S
C1132      C1225   1.467       .  S
C1133      C1155   1.474       .  S
C1133      O1368   1.293       .  A
C1134      C1969   1.463   1_554  S
C1134      O1627   1.293       .  A
C1135      C1262   1.465       .  S
C1136      C1460   1.478       .  S
C1136      O1631   1.288   1_546  A
O1138     Eu1639   2.341   1_545  S
H1139      O1656   0.966       .  S
O1140     Eu1642   2.351       .  S
O1140      H1655   0.966       .  S
C1141      C1142   1.404       .  A
C1141      C1146   1.395       .  A
C1141      H1148   1.083       .  S
C1142      C1143   1.413       .  A
C1143      C1144   1.400       .  A
C1143      F1150   1.357       .  S
C1144      C1145   1.399       .  A
C1144      H1149   1.083       .  S
C1145      C1146   1.405       .  A
C1146      F1147   1.358       .  S
C1151      C1152   1.409       .  A
C1151      C1156   1.402       .  A
C1151      H1158   1.083       .  S
C1152      C1153   1.406       .  A
C1153      C1154   1.392       .  A
C1153      F1160   1.358       .  S
C1154      C1155   1.404       .  A
C1154      H1159   1.084       .  S
C1155      C1156   1.404       .  A
C1156      F1157   1.357       .  S
C1161      C1166   1.393       .  A
C1161      H1168   1.084       .  S
C1162      C1163   1.403       .  A
C1163      C1164   1.403       .  A
C1163      F1170   1.357       .  S
C1164      H1169   1.083       .  S
C1165      C1166   1.413       .  A
C1166      F1167   1.358       .  S
C1171      C1176   1.387       .  A
C1171      H1178   1.084       .  S
C1172      C1173   1.408       .  A
C1173      C1174   1.407       .  A
C1173      F1180   1.357       .  S
C1174      H1179   1.083       .  S
C1175      C1176   1.411       .  A
C1176      F1177   1.358       .  S
C1181      C1182   1.409       .  A
C1181      H1188   1.083   1_655  S
C1182      C1183   1.406       .  A
C1183      C1184   1.397       .  A
C1183      F1190   1.357       .  S
C1184      C1185   1.407       .  A
C1184      H1189   1.083       .  S
C1186      F1187   1.357       .  S
C1191      C1192   1.403       .  A
C1191      C1196   1.396       .  A
C1191      H1198   1.083       .  S
C1192      C1193   1.414       .  A
C1193      C1968   1.397       .  A
C1193      F1716   1.358   1_545  S
C1194      C1967   1.397   1_554  A
C1194      C1969   1.397   1_554  A
C1194      H1199   1.084       .  S
C1195      C1968   1.397       .  A
C1195      C1196   1.405       .  A
C1195      C1908   1.463       .  S
C1196      F1197   1.357       .  S
F1200      C1709   1.358       .  S
C1201      C1202   1.408       .  A
C1201      C1206   1.406       .  A
C1201      H1208   1.083       .  S
C1202      C1203   1.407   1_545  A
C1202      C1394   1.478       .  S
C1203      C1204   1.387   1_565  A
C1203      F1984   1.358       .  S
C1204      C1205   1.401       .  A
C1204      H1725   1.084   1_545  S
C1205      C1206   1.406       .  A
C1206      F1207   1.357       .  S
H1209      C1720   1.084       .  S
F1210      C1977   1.358   1_554  S
C1211      C1212   1.396       .  A
C1211      C1216   1.387       .  A
C1211      H1218   1.084       .  S
C1212      C1213   1.404       .  A
C1213      C1214   1.407       .  A
C1213      F1220   1.357       .  S
C1214      C1215   1.410       .  A
C1214      H1219   1.083       .  S
C1215      C1216   1.413       .  A
C1216      F1217   1.358       .  S
C1221      C1222   1.404       .  A
C1221      C1226   1.396       .  A
C1221      H1228   1.083       .  S
C1222      C1223   1.415       .  A
C1223      C1224   1.399       .  A
C1223      F1230   1.357       .  S
C1224      C1225   1.398       .  A
C1224      H1229   1.084       .  S
C1225      C1226   1.405       .  A
C1226      F1227   1.358       .  S
C1231      C1232   1.403       .  A
C1231      C1236   1.398       .  A
C1231      H1238   1.083       .  S
C1232      C1233   1.412       .  A
C1233      C1750   1.402       .  A
C1233      F1756   1.357       .  S
C1234      C1749   1.402       .  A
C1234      C1235   1.405       .  A
C1234      H1239   1.083       .  S
C1235      C1752   1.411   1_545  A
C1236      C1751   1.411       .  A
C1236      F1237   1.357       .  S
F1240      C1749   1.357       .  S
C1241      C1242   1.408       .  A
C1241      C1246   1.409       .  A
C1241      H1248   1.083       .  S
C1242      C1243   1.407       .  A
C1243      C1244   1.386       .  A
C1243      F1250   1.359       .  S
C1244      C1245   1.401       .  A
C1244      H1249   1.084       .  S
C1245      C1246   1.407       .  A
C1246      F1247   1.357       .  S
C1251      C1252   1.412       .  A
C1251      C1256   1.399       .  A
C1251      H1258   1.083       .  S
C1252      C1253   1.407       .  A
C1253      C1254   1.395       .  A
C1253      F1260   1.358       .  S
C1254      C1255   1.405       .  A
C1254      H1259   1.084       .  S
C1255      C1256   1.399       .  A
C1256      F1257   1.357       .  S
C1261      C1262   1.399       .  A
C1261      C1266   1.399       .  A
C1261      H1268   1.083       .  S
C1262      C1263   1.404       .  A
C1263      C1522   1.398       .  A
C1263      F1528   1.357   1_554  S
C1264      C1521   1.398       .  A
C1264      C1523   1.403       .  A
C1264      H1269   1.083       .  S
C1265      C1522   1.403       .  A
C1265      C1266   1.410       .  A
C1265      C1295   1.481       .  S
C1266      F1267   1.358       .  S
F1270      C1521   1.357       .  S
C1271      C1530   1.407       .  A
C1271      C1276   1.404       .  A
C1271      H1278   1.083       .  S
C1272      C1529   1.407   1_554  A
C1272      C1273   1.410       .  A
C1273      C1274   1.395       .  A
C1273      F1280   1.358       .  S
C1274      C1275   1.400       .  A
C1274      H1279   1.084       .  S
C1275      C1534   1.407   1_554  A
C1275      C1291   1.479       .  S
C1276      C1533   1.407       .  A
C1276      F1277   1.357       .  S
C1281      C1282   1.404       .  A
C1281      C1286   1.397       .  A
C1281      H1288   1.083       .  S
C1282      C1283   1.411       .  A
C1283      C1284   1.405       .  A
C1283      F1290   1.358       .  S
C1284      C1285   1.407       .  A
C1284      H1289   1.083       .  S
C1285      C1286   1.409       .  A
C1286      F1287   1.357       .  S
C1291      C1296   1.400       .  A
C1292      C1293   1.410       .  A
C1292      H1297   1.084       .  S
C1293      C1294   1.407       .  A
C1293      C1540   1.492       .  S
C1294      H1298   1.084       .  S
C1295      C1296   1.401       .  A
C1296      H1299   1.084       .  S
C1300      C1301   1.408       .  A
C1300      C1305   1.400       .  A
C1300      C1503   1.479       .  S
C1301      C1302   1.412       .  A
C1301      H1306   1.083       .  S
C1302      C1303   1.409       .  A
C1302      C1543   1.493       .  S
C1303      C1304   1.406       .  A
C1303      H1307   1.083       .  S
C1304      C1305   1.397       .  A
C1304      C1510   1.489       .  S
C1305      H1308   1.084       .  S
C1309      C1310   1.403       .  A
C1309      C1314   1.399       .  A
C1309      C1470   1.472       .  S
C1310      C1311   1.409       .  A
C1310      H1315   1.084       .  S
C1311      C1312   1.408       .  A
C1311      C1490   1.491       .  S
C1312      C1313   1.408       .  A
C1312      H1316   1.083       .  S
C1313      C1314   1.400       .  A
C1313      C1480   1.488       .  S
C1314      H1317   1.084       .  S
C1318      C1319   1.406       .  A
C1318      C1323   1.400       .  A
C1318      C1463   1.478       .  S
C1319      C1320   1.411       .  A
C1319      H1324   1.084       .  S
C1320      C1321   1.408       .  A
C1320      C1493   1.491       .  S
C1321      C1322   1.404       .  A
C1321      H1325   1.083       .  S
C1322      C1323   1.396       .  A
C1322      C1450   1.483       .  S
C1323      H1326   1.084       .  S
C1327      C1328   1.407       .  A
C1327      C1332   1.403       .  A
C1327      C1420   1.472       .  S
C1328      C1329   1.406       .  A
C1328      H1333   1.084       .  S
C1329      C1330   1.403       .  A
C1330      C1331   1.405       .  A
C1330      H1334   1.084       .  S
C1331      C1332   1.400       .  A
C1331      C1430   1.481       .  S
C1332      H1335   1.084       .  S
C1336      C1337   1.403       .  A
C1336      C1341   1.407       .  A
C1336      C1410   1.484       .  S
C1337      C1338   1.402       .  A
C1337      H1342   1.083       .  S
C1338      C1339   1.407       .  A
C1338      C1400   1.486       .  S
C1339      C1340   1.405       .  A
C1339      H1343   1.083       .  S
C1340      C1341   1.407       .  A
C1340      C1440   1.490       .  S
C1341      H1344   1.083       .  S
O1345      C1356   1.294       .  A
O1346      C1357   1.293       .  A
O1346     Eu1380   2.476       .  S
O1347      C1358   1.295       .  A
O1348      C1359   1.295       .  A
O1348     Eu1353   2.485       .  S
O1349      C1359   1.285       .  A
O1349     Eu1383   2.418       .  S
O1350      C1358   1.286       .  A
O1350     Eu1898   2.425       .  S
O1351      C1357   1.287       .  A
O1351     Eu1353   2.432       .  S
O1352      C1356   1.290       .  A
Eu1353     O1363   2.354       .  S
Eu1353     O1354   2.339       .  S
Eu1353     O1361   2.362       .  S
O1354     Eu1383   2.336       .  S
O1354     Eu1380   2.338       .  S
O1355     Eu1898   2.355       .  S
C1356      C1530   1.483       .  S
C1357      C1403   1.467       .  S
C1358      C1473   1.486       .  S
C1359      C1513   1.468       .  S
H1360      O1361   0.966       .  S
O1361     Eu1380   2.359       .  S
H1362      O1363   0.966       .  S
O1363     Eu1381   2.357       .  S
O1363     Eu1383   2.359       .  S
O1364      C1387   1.295       .  A
O1364     Eu1896   2.488       .  S
O1365      C1904   1.295       .  A
O1366     Eu1382   2.472       .  S
O1367      C1390   1.293       .  A
O1367     Eu1383   2.476       .  S
O1368     Eu1383   2.476       .  S
O1369      C1908   1.293       .  A
O1369     Eu1382   2.476       .  S
O1370     Eu1384   2.477       .  S
O1371      C1394   1.292       .  A
O1371     Eu1384   2.471       .  S
O1372      C1393   1.288       .  A
O1372     Eu1382   2.440       .  S
O1373      C1910   1.288       .  A
O1373     Eu1383   2.433       .  S
O1374      C1389   1.289       .  A
O1374     Eu1896   2.442       .  S
O1375      C1392   1.287       .  A
O1376      C1391   1.288       .  A
O1377      C1390   1.287       .  A
O1377     Eu1380   2.432       .  S
O1378      C1387   1.286       .  A
O1378     Eu1384   2.423       .  S
O1379      C1388   1.286       .  A
Eu1380     O1880   2.488       .  S
Eu1380     O1890   2.442       .  S
Eu1380     O1398   2.360       .  S
Eu1380     O1902   2.351       .  S
Eu1381     O1385   2.356       .  S
Eu1381     O1912   2.341       .  S
Eu1382     O1866   2.425   1_545  S
Eu1382     O1871   2.355   1_545  S
Eu1383     O1385   2.348       .  S
Eu1383     O1398   2.352       .  S
Eu1384     O1901   2.353   1_545  S
Eu1384     O1396   2.336       .  S
Eu1384     O1914   2.351       .  S
Eu1384     O1386   2.352       .  S
O1385     Eu1900   2.353       .  S
O1386     Eu1896   2.351       .  S
C1387      C1500   1.478       .  S
C1388      C1433   1.483       .  S
C1388      O1881   1.295       .  A
C1389      C1423   1.486       .  S
C1390      C1483   1.467       .  S
C1391      C1413   1.474       .  S
C1392      C1711   1.463       .  S
C1392      O1885   1.293       .  A
C1393      C1520   1.465       .  S
C1394      O1889   1.288   1_545  A
O1396     Eu1897   2.341   1_545  S
H1397      O1914   0.966       .  S
O1398     Eu1900   2.351       .  S
O1398      H1913   0.966       .  S
C1399      C1400   1.404       .  A
C1399      C1404   1.395       .  A
C1399      H1406   1.083       .  S
C1400      C1401   1.413       .  A
C1401      C1402   1.400       .  A
C1401      F1408   1.357       .  S
C1402      C1403   1.399       .  A
C1402      H1407   1.083       .  S
C1403      C1404   1.405       .  A
C1404      F1405   1.358       .  S
C1409      C1410   1.409       .  A
C1409      C1414   1.402       .  A
C1409      H1416   1.083       .  S
C1410      C1411   1.406       .  A
C1411      C1412   1.392       .  A
C1411      F1418   1.358       .  S
C1412      C1413   1.404       .  A
C1412      H1417   1.084       .  S
C1413      C1414   1.404       .  A
C1414      F1415   1.357       .  S
C1419      C1424   1.393       .  A
C1419      H1426   1.084       .  S
C1420      C1421   1.403       .  A
C1421      C1422   1.403       .  A
C1421      F1428   1.357       .  S
C1422      H1427   1.083       .  S
C1423      C1424   1.413       .  A
C1424      F1425   1.358       .  S
C1429      C1434   1.387       .  A
C1429      H1436   1.084       .  S
C1430      C1431   1.408       .  A
C1431      C1432   1.407       .  A
C1431      F1438   1.357       .  S
C1432      H1437   1.083       .  S
C1433      C1434   1.411       .  A
C1434      F1435   1.358       .  S
C1439      C1440   1.409       .  A
C1439      H1446   1.083   1_655  S
C1440      C1441   1.406       .  A
C1441      C1442   1.397       .  A
C1441      F1448   1.357       .  S
C1442      C1443   1.407       .  A
C1442      H1447   1.083       .  S
C1444      F1445   1.357       .  S
C1449      C1450   1.403       .  A
C1449      C1454   1.396       .  A
C1449      H1456   1.083       .  S
C1450      C1451   1.414       .  A
C1451      C1710   1.397   1_556  A
C1451      F1974   1.358   1_545  S
C1452      C1709   1.397       .  A
C1452      C1711   1.397       .  A
C1452      H1457   1.084       .  S
C1453      C1710   1.397   1_556  A
C1453      C1454   1.405       .  A
C1453      C1650   1.463   1_556  S
C1454      F1455   1.357       .  S
F1458      C1967   1.358       .  S
C1459      C1460   1.408       .  A
C1459      C1464   1.406       .  A
C1459      H1466   1.083       .  S
C1460      C1461   1.407   1_545  A
C1461      C1462   1.387   1_565  A
C1461      F1726   1.358   1_556  S
C1462      C1463   1.401       .  A
C1462      H1983   1.084   1_545  S
C1463      C1464   1.406       .  A
C1464      F1465   1.357       .  S
H1467      C1978   1.084       .  S
F1468      C1719   1.358       .  S
C1469      C1470   1.396       .  A
C1469      C1474   1.387       .  A
C1469      H1476   1.084       .  S
C1470      C1471   1.404       .  A
C1471      C1472   1.407       .  A
C1471      F1478   1.357       .  S
C1472      C1473   1.410       .  A
C1472      H1477   1.083       .  S
C1473      C1474   1.413       .  A
C1474      F1475   1.358       .  S
C1479      C1480   1.404       .  A
C1479      C1484   1.396       .  A
C1479      H1486   1.083       .  S
C1480      C1481   1.415       .  A
C1481      C1482   1.399       .  A
C1481      F1488   1.357       .  S
C1482      C1483   1.398       .  A
C1482      H1487   1.084       .  S
C1483      C1484   1.405       .  A
C1484      F1485   1.358       .  S
C1489      C1490   1.403       .  A
C1489      C1494   1.398       .  A
C1489      H1496   1.083       .  S
C1490      C1491   1.412       .  A
C1491      C2008   1.402       .  A
C1491      F2014   1.357       .  S
C1492      C2007   1.402       .  A
C1492      C1493   1.405       .  A
C1492      H1497   1.083       .  S
C1493      C2010   1.411   1_545  A
C1494      C2009   1.411       .  A
C1494      F1495   1.357       .  S
F1498      C2007   1.357       .  S
C1499      C1500   1.408       .  A
C1499      C1504   1.409       .  A
C1499      H1506   1.083       .  S
C1500      C1501   1.407       .  A
C1501      C1502   1.386       .  A
C1501      F1508   1.359       .  S
C1502      C1503   1.401       .  A
C1502      H1507   1.084       .  S
C1503      C1504   1.407       .  A
C1504      F1505   1.357       .  S
C1509      C1510   1.412       .  A
C1509      C1514   1.399       .  A
C1509      H1516   1.083       .  S
C1510      C1511   1.407       .  A
C1511      C1512   1.395       .  A
C1511      F1518   1.358       .  S
C1512      C1513   1.405       .  A
C1512      H1517   1.084       .  S
C1513      C1514   1.399       .  A
C1514      F1515   1.357       .  S
C1519      C1520   1.399       .  A
C1519      C1524   1.399       .  A
C1519      H1526   1.083       .  S
C1520      C1521   1.404       .  A
C1522      H1527   1.083   1_554  S
C1523      C1524   1.410       .  A
C1524      F1525   1.358       .  S
C1529      C1534   1.404       .  A
C1529      H1536   1.083       .  S
C1530      C1531   1.410       .  A
C1531      C1532   1.395       .  A
C1531      F1538   1.358       .  S
C1532      C1533   1.400       .  A
C1532      H1537   1.084       .  S
C1534      F1535   1.357       .  S
C1539      C1540   1.404       .  A
C1539      C1544   1.397       .  A
C1539      H1546   1.083       .  S
C1540      C1541   1.411       .  A
C1541      C1542   1.405       .  A
C1541      F1548   1.358       .  S
C1542      C1543   1.407       .  A
C1542      H1547   1.083       .  S
C1543      C1544   1.409       .  A
C1544      F1545   1.357       .  S
C1549      C1808   1.405       .  A
C1549      C1554   1.400       .  A
C1549      C2049   1.479       .  S
C1550      C1807   1.405       .  A
C1550      C1551   1.410       .  A
C1550      H1555   1.084       .  S
C1551      C1552   1.407       .  A
C1551      C1798   1.492       .  S
C1552      C1811   1.406       .  A
C1552      H1556   1.084       .  S
C1553      C1810   1.406       .  A
C1553      C1554   1.401       .  A
C1553      C2039   1.481       .  S
C1554      H1557   1.084       .  S
C1558      C1559   1.408       .  A
C1558      C1563   1.400       .  A
C1558      C1761   1.479       .  S
C1559      C1560   1.412       .  A
C1559      H1564   1.083       .  S
C1560      C1561   1.409       .  A
C1560      C1801   1.493       .  S
C1561      C1562   1.406       .  A
C1561      H1565   1.083       .  S
C1562      C1563   1.397       .  A
C1562      C1768   1.489       .  S
C1563      H1566   1.084       .  S
C1567      C1568   1.403       .  A
C1567      C1572   1.399       .  A
C1567      C1728   1.472       .  S
C1568      C1569   1.409       .  A
C1568      H1573   1.084       .  S
C1569      C1570   1.408       .  A
C1569      C1748   1.491       .  S
C1570      C1571   1.408       .  A
C1570      H1574   1.083       .  S
C1571      C1572   1.400       .  A
C1571      C1738   1.488       .  S
C1572      H1575   1.084       .  S
C1576      C1577   1.406       .  A
C1576      C1581   1.400       .  A
C1576      C1721   1.478       .  S
C1577      C1578   1.411       .  A
C1577      H1582   1.084       .  S
C1578      C1579   1.408       .  A
C1578      C1751   1.491       .  S
C1579      C1580   1.404       .  A
C1579      H1583   1.083       .  S
C1580      C1581   1.396       .  A
C1580      C1708   1.483       .  S
C1581      H1584   1.084       .  S
C1585      C1586   1.407       .  A
C1585      C1590   1.403       .  A
C1585      C1678   1.472       .  S
C1586      C1587   1.406       .  A
C1586      H1591   1.084       .  S
C1587      C1588   1.403       .  A
C1588      C1589   1.405       .  A
C1588      H1592   1.084       .  S
C1589      C1590   1.400       .  A
C1589      C1688   1.481       .  S
C1590      H1593   1.084       .  S
C1594      C1595   1.403       .  A
C1594      C1599   1.407       .  A
C1594      C1668   1.484       .  S
C1595      C1596   1.402       .  A
C1595      H1600   1.083       .  S
C1596      C1597   1.407       .  A
C1596      C1658   1.486       .  S
C1597      C1598   1.405       .  A
C1597      H1601   1.083       .  S
C1598      C1599   1.407       .  A
C1598      C1698   1.490       .  S
C1599      H1602   1.083       .  S
O1603      C1614   1.294       .  A
O1604      C1615   1.293       .  A
O1604     Eu1638   2.476   1_565  S
O1605      C1616   1.295       .  A
O1606      C1617   1.295       .  A
O1606     Eu1611   2.485       .  S
O1607      C1617   1.285       .  A
O1607     Eu1641   2.418       .  S
O1608      C1616   1.286       .  A
O1609      C1615   1.287       .  A
O1609     Eu1611   2.432       .  S
O1610      C1614   1.290       .  A
Eu1611     O1621   2.354       .  S
Eu1611     O1612   2.339       .  S
Eu1611     O1619   2.362       .  S
O1612     Eu1641   2.336       .  S
O1612     Eu1638   2.338   1_565  S
C1614      C1788   1.483       .  S
C1615      C1661   1.467       .  S
C1616      C1731   1.486       .  S
C1617      C1771   1.468       .  S
H1618      O1619   0.966       .  S
O1619     Eu1638   2.359   1_565  S
H1620      O1621   0.966       .  S
O1621     Eu1639   2.357       .  S
O1621     Eu1641   2.359       .  S
O1622      C1645   1.295       .  A
O1623     Eu1897   2.489   1_545  S
O1624     Eu1640   2.472       .  S
O1625      C1648   1.293       .  A
O1625     Eu1641   2.476       .  S
O1626      C1907   1.293       .  A
O1626     Eu1641   2.476   1_556  S
O1627     Eu1640   2.476       .  S
O1628     Eu1642   2.477       .  S
O1629      C1652   1.292       .  A
O1629     Eu1642   2.471   1_556  S
O1630      C1651   1.288       .  A
O1630     Eu1640   2.440       .  S
O1631     Eu1641   2.433       .  S
O1632      C1647   1.289       .  A
O1633      C1650   1.287   1_566  A
O1634      C1649   1.288       .  A
O1634     Eu1897   2.434       .  S
O1635      C1648   1.287       .  A
O1635     Eu1638   2.432   1_565  S
O1636      C1645   1.286       .  A
O1636     Eu1642   2.423       .  S
O1637      C1646   1.286       .  A
O1637     Eu1900   2.420       .  S
Eu1638     O1656   2.360       .  S
Eu1639     O1881   2.489   1_564  S
Eu1639     O1892   2.434   1_554  S
Eu1639     O1643   2.356       .  S
Eu1641     O1643   2.348       .  S
Eu1641     O1656   2.352   1_565  S
Eu1642     O1895   2.420   1_554  S
Eu1642     O1654   2.336       .  S
Eu1642     O1644   2.352       .  S
C1645      C1758   1.478       .  S
C1646      C1691   1.483       .  S
C1647      C1681   1.486       .  S
C1648      C1741   1.467       .  S
C1649      C1671   1.474       .  S
C1649      O1884   1.293       .  A
C1651      C1778   1.465       .  S
C1652      C1976   1.478       .  S
C1657      C1658   1.404       .  A
C1657      C1662   1.395       .  A
C1657      H1664   1.083       .  S
C1658      C1659   1.413       .  A
C1659      C1660   1.400       .  A
C1659      F1666   1.357       .  S
C1660      C1661   1.399       .  A
C1660      H1665   1.083       .  S
C1661      C1662   1.405       .  A
C1662      F1663   1.358       .  S
C1667      C1668   1.409       .  A
C1667      C1672   1.402       .  A
C1667      H1674   1.083       .  S
C1668      C1669   1.406       .  A
C1669      C1670   1.392       .  A
C1669      F1676   1.358       .  S
C1670      C1671   1.404       .  A
C1670      H1675   1.084       .  S
C1671      C1672   1.404       .  A
C1672      F1673   1.357       .  S
C1677      C1682   1.393       .  A
C1677      H1684   1.084       .  S
C1678      C1679   1.403       .  A
C1679      C1680   1.403       .  A
C1679      F1686   1.357       .  S
C1680      H1685   1.083       .  S
C1681      C1682   1.413       .  A
C1682      F1683   1.358       .  S
C1687      C1692   1.387       .  A
C1687      H1694   1.084       .  S
C1688      C1689   1.408       .  A
C1689      C1690   1.407       .  A
C1689      F1696   1.357       .  S
C1690      H1695   1.083       .  S
C1691      C1692   1.411       .  A
C1692      F1693   1.358       .  S
C1697      C1698   1.409       .  A
C1697      H1704   1.083   1_655  S
C1698      C1699   1.406       .  A
C1699      C1700   1.397       .  A
C1699      F1706   1.357       .  S
C1700      C1701   1.407       .  A
C1700      H1705   1.083       .  S
C1702      F1703   1.357       .  S
C1707      C1708   1.403       .  A
C1707      C1712   1.396       .  A
C1707      H1714   1.083       .  S
C1708      C1709   1.414       .  A
C1710      H1715   1.084   1_545  S
C1711      C1712   1.405       .  A
C1712      F1713   1.357       .  S
C1717      C1718   1.408       .  A
C1717      C1722   1.406       .  A
C1717      H1724   1.083       .  S
C1718      C1719   1.407       .  A
C1718      C1910   1.478       .  S
C1719      C1720   1.387       .  A
C1720      C1721   1.401       .  A
C1721      C1722   1.406       .  A
C1722      F1723   1.357       .  S
C1727      C1728   1.396       .  A
C1727      C1732   1.387       .  A
C1727      H1734   1.084       .  S
C1728      C1729   1.404       .  A
C1729      C1730   1.407       .  A
C1729      F1736   1.357       .  S
C1730      C1731   1.410       .  A
C1730      H1735   1.083       .  S
C1731      C1732   1.413       .  A
C1732      F1733   1.358   1_565  S
C1737      C1738   1.404       .  A
C1737      C1742   1.396       .  A
C1737      H1744   1.083       .  S
C1738      C1739   1.415       .  A
C1739      C1740   1.399       .  A
C1739      F1746   1.357       .  S
C1740      C1741   1.398       .  A
C1740      H1745   1.084       .  S
C1741      C1742   1.405       .  A
C1742      F1743   1.358       .  S
C1747      C1748   1.403       .  A
C1747      C1752   1.398       .  A
C1747      H1754   1.083       .  S
C1748      C1749   1.412   1_565  A
C1750      C1751   1.405       .  A
C1750      H1755   1.083       .  S
C1752      F1753   1.357       .  S
C1757      C1758   1.408       .  A
C1757      C1762   1.409       .  A
C1757      H1764   1.083       .  S
C1758      C1759   1.407       .  A
C1759      C1760   1.386       .  A
C1759      F1766   1.359       .  S
C1760      C1761   1.401       .  A
C1760      H1765   1.084       .  S
C1761      C1762   1.407       .  A
C1762      F1763   1.357       .  S
C1767      C1768   1.412       .  A
C1767      C1772   1.399       .  A
C1767      H1774   1.083       .  S
C1768      C1769   1.407       .  A
C1769      C1770   1.395       .  A
C1769      F1776   1.358       .  S
C1770      C1771   1.405       .  A
C1770      H1775   1.084       .  S
C1771      C1772   1.399       .  A
C1772      F1773   1.357       .  S
C1777      C1778   1.399       .  A
C1777      C1782   1.399       .  A
C1777      H1784   1.083       .  S
C1778      C1779   1.404       .  A
C1779      C2038   1.398       .  A
C1779      F2044   1.357   1_554  S
C1780      C2037   1.398       .  A
C1780      C2039   1.403       .  A
C1780      H1785   1.083       .  S
C1781      C2038   1.403       .  A
C1781      C1782   1.410       .  A
C1781      C1811   1.481       .  S
C1782      F1783   1.358       .  S
F1786      C2037   1.357       .  S
C1787      C2046   1.407       .  A
C1787      C1792   1.404       .  A
C1787      H1794   1.083       .  S
C1788      C2045   1.407   1_554  A
C1788      C1789   1.410       .  A
C1789      C1790   1.395       .  A
C1789      F1796   1.358       .  S
C1790      C1791   1.400       .  A
C1790      H1795   1.084       .  S
C1791      C2050   1.407   1_554  A
C1791      C1807   1.479       .  S
C1792      C2049   1.407       .  A
C1792      F1793   1.357       .  S
C1797      C1798   1.404       .  A
C1797      C1802   1.397       .  A
C1797      H1804   1.083       .  S
C1798      C1799   1.411       .  A
C1799      C1800   1.405       .  A
C1799      F1806   1.358       .  S
C1800      C1801   1.407       .  A
C1800      H1805   1.083       .  S
C1801      C1802   1.409       .  A
C1802      F1803   1.357       .  S
C1807      C1812   1.400       .  A
C1808      C1809   1.410       .  A
C1808      H1813   1.084       .  S
C1809      C1810   1.407       .  A
C1809      C2056   1.492       .  S
C1810      H1814   1.084       .  S
C1811      C1812   1.401       .  A
C1812      H1815   1.084       .  S
C1816      C1817   1.408       .  A
C1816      C1821   1.400       .  A
C1816      C2019   1.479       .  S
C1817      C1818   1.412       .  A
C1817      H1822   1.083       .  S
C1818      C1819   1.409       .  A
C1818      C2059   1.493       .  S
C1819      C1820   1.406       .  A
C1819      H1823   1.083       .  S
C1820      C1821   1.397       .  A
C1820      C2026   1.489       .  S
C1821      H1824   1.084       .  S
C1825      C1826   1.403       .  A
C1825      C1830   1.399       .  A
C1825      C1986   1.472       .  S
C1826      C1827   1.409       .  A
C1826      H1831   1.084       .  S
C1827      C1828   1.408       .  A
C1827      C2006   1.491       .  S
C1828      C1829   1.408       .  A
C1828      H1832   1.083       .  S
C1829      C1830   1.400       .  A
C1829      C1996   1.488       .  S
C1830      H1833   1.084       .  S
C1834      C1835   1.406       .  A
C1834      C1839   1.400       .  A
C1834      C1979   1.478       .  S
C1835      C1836   1.411       .  A
C1835      H1840   1.084       .  S
C1836      C1837   1.408       .  A
C1836      C2009   1.491       .  S
C1837      C1838   1.404       .  A
C1837      H1841   1.083       .  S
C1838      C1839   1.396       .  A
C1838      C1966   1.483       .  S
C1839      H1842   1.084       .  S
C1843      C1844   1.407       .  A
C1843      C1848   1.403       .  A
C1843      C1936   1.472       .  S
C1844      C1845   1.406       .  A
C1844      H1849   1.084       .  S
C1845      C1846   1.403       .  A
C1846      C1847   1.405       .  A
C1846      H1850   1.084       .  S
C1847      C1848   1.400       .  A
C1847      C1946   1.481       .  S
C1848      H1851   1.084       .  S
C1852      C1853   1.403       .  A
C1852      C1857   1.407       .  A
C1852      C1926   1.484       .  S
C1853      C1854   1.402       .  A
C1853      H1858   1.083       .  S
C1854      C1855   1.407       .  A
C1854      C1916   1.486       .  S
C1855      C1856   1.405       .  A
C1855      H1859   1.083       .  S
C1856      C1857   1.407       .  A
C1856      C1956   1.490       .  S
C1857      H1860   1.083       .  S
O1861      C1872   1.294       .  A
O1862      C1873   1.293       .  A
O1862     Eu1896   2.476   1_565  S
O1863      C1874   1.295       .  A
O1864      C1875   1.295       .  A
O1864     Eu1869   2.485       .  S
O1865      C1875   1.285       .  A
O1865     Eu1899   2.418       .  S
O1866      C1874   1.286       .  A
O1867      C1873   1.287       .  A
O1867     Eu1869   2.432       .  S
O1868      C1872   1.290       .  A
Eu1869     O1879   2.354       .  S
Eu1869     O1870   2.339       .  S
Eu1869     O1877   2.362       .  S
O1870     Eu1899   2.336       .  S
O1870     Eu1896   2.338   1_565  S
C1872      C2046   1.483       .  S
C1873      C1919   1.467       .  S
C1874      C1989   1.486       .  S
C1875      C2029   1.468       .  S
H1876      O1877   0.966       .  S
O1877     Eu1896   2.359   1_565  S
H1878      O1879   0.966       .  S
O1879     Eu1897   2.357       .  S
O1879     Eu1899   2.359       .  S
O1880      C1903   1.295       .  A
O1882     Eu1898   2.472       .  S
O1883      C1906   1.293       .  A
O1883     Eu1899   2.476       .  S
O1884     Eu1899   2.476       .  S
O1885     Eu1898   2.476       .  S
O1886     Eu1900   2.477       .  S
O1887      C1910   1.292       .  A
O1887     Eu1900   2.471       .  S
O1888      C1909   1.288       .  A
O1888     Eu1898   2.440       .  S
O1889     Eu1899   2.433       .  S
O1890      C1905   1.289       .  A
O1891      C1908   1.287   1_565  A
O1892      C1907   1.288       .  A
O1893      C1906   1.287       .  A
O1893     Eu1896   2.432   1_565  S
O1894      C1903   1.286       .  A
O1894     Eu1900   2.423       .  S
O1895      C1904   1.286       .  A
Eu1896     O1914   2.360       .  S
Eu1897     O1901   2.356       .  S
Eu1899     O1901   2.348       .  S
Eu1899     O1914   2.352   1_565  S
Eu1900     O1912   2.336       .  S
Eu1900     O1902   2.352       .  S
C1903      C2016   1.478       .  S
C1904      C1949   1.483       .  S
C1905      C1939   1.486       .  S
C1906      C1999   1.467       .  S
C1907      C1929   1.474       .  S
C1909      C2036   1.465       .  S
C1915      C1916   1.404       .  A
C1915      C1920   1.395       .  A
C1915      H1922   1.083       .  S
C1916      C1917   1.413       .  A
C1917      C1918   1.400       .  A
C1917      F1924   1.357       .  S
C1918      C1919   1.399       .  A
C1918      H1923   1.083       .  S
C1919      C1920   1.405       .  A
C1920      F1921   1.358       .  S
C1925      C1926   1.409       .  A
C1925      C1930   1.402       .  A
C1925      H1932   1.083       .  S
C1926      C1927   1.406       .  A
C1927      C1928   1.392       .  A
C1927      F1934   1.358       .  S
C1928      C1929   1.404       .  A
C1928      H1933   1.084       .  S
C1929      C1930   1.404       .  A
C1930      F1931   1.357       .  S
C1935      C1940   1.393       .  A
C1935      H1942   1.084       .  S
C1936      C1937   1.403       .  A
C1937      C1938   1.403       .  A
C1937      F1944   1.357       .  S
C1938      H1943   1.083       .  S
C1939      C1940   1.413       .  A
C1940      F1941   1.358       .  S
C1945      C1950   1.387       .  A
C1945      H1952   1.084       .  S
C1946      C1947   1.408       .  A
C1947      C1948   1.407       .  A
C1947      F1954   1.357       .  S
C1948      H1953   1.083       .  S
C1949      C1950   1.411       .  A
C1950      F1951   1.358       .  S
C1955      C1956   1.409       .  A
C1955      H1962   1.083   1_655  S
C1956      C1957   1.406       .  A
C1957      C1958   1.397       .  A
C1957      F1964   1.357       .  S
C1958      C1959   1.407       .  A
C1958      H1963   1.083       .  S
C1960      F1961   1.357       .  S
C1965      C1966   1.403       .  A
C1965      C1970   1.396       .  A
C1965      H1972   1.083       .  S
C1966      C1967   1.414       .  A
C1968      H1973   1.084   1_545  S
C1969      C1970   1.405       .  A
C1970      F1971   1.357       .  S
C1975      C1976   1.408       .  A
C1975      C1980   1.406       .  A
C1975      H1982   1.083       .  S
C1976      C1977   1.407       .  A
C1977      C1978   1.387       .  A
C1978      C1979   1.401       .  A
C1979      C1980   1.406       .  A
C1980      F1981   1.357       .  S
C1985      C1986   1.396       .  A
C1985      C1990   1.387       .  A
C1985      H1992   1.084       .  S
C1986      C1987   1.404       .  A
C1987      C1988   1.407       .  A
C1987      F1994   1.357       .  S
C1988      C1989   1.410       .  A
C1988      H1993   1.083       .  S
C1989      C1990   1.413       .  A
C1990      F1991   1.358   1_565  S
C1995      C1996   1.404       .  A
C1995      C2000   1.396       .  A
C1995      H2002   1.083       .  S
C1996      C1997   1.415       .  A
C1997      C1998   1.399       .  A
C1997      F2004   1.357       .  S
C1998      C1999   1.398       .  A
C1998      H2003   1.084       .  S
C1999      C2000   1.405       .  A
C2000      F2001   1.358       .  S
C2005      C2006   1.403       .  A
C2005      C2010   1.398       .  A
C2005      H2012   1.083       .  S
C2006      C2007   1.412   1_565  A
C2008      C2009   1.405       .  A
C2008      H2013   1.083       .  S
C2010      F2011   1.357       .  S
C2015      C2016   1.408       .  A
C2015      C2020   1.409       .  A
C2015      H2022   1.083       .  S
C2016      C2017   1.407       .  A
C2017      C2018   1.386       .  A
C2017      F2024   1.359       .  S
C2018      C2019   1.401       .  A
C2018      H2023   1.084       .  S
C2019      C2020   1.407       .  A
C2020      F2021   1.357       .  S
C2025      C2026   1.412       .  A
C2025      C2030   1.399       .  A
C2025      H2032   1.083       .  S
C2026      C2027   1.407       .  A
C2027      C2028   1.395       .  A
C2027      F2034   1.358       .  S
C2028      C2029   1.405       .  A
C2028      H2033   1.084       .  S
C2029      C2030   1.399       .  A
C2030      F2031   1.357       .  S
C2035      C2036   1.399       .  A
C2035      C2040   1.399       .  A
C2035      H2042   1.083       .  S
C2036      C2037   1.404       .  A
C2038      H2043   1.083   1_554  S
C2039      C2040   1.410       .  A
C2040      F2041   1.358       .  S
C2045      C2050   1.404       .  A
C2045      H2052   1.083       .  S
C2046      C2047   1.410       .  A
C2047      C2048   1.395       .  A
C2047      F2054   1.358       .  S
C2048      C2049   1.400       .  A
C2048      H2053   1.084       .  S
C2050      F2051   1.357       .  S
C2055      C2056   1.404       .  A
C2055      C2060   1.397       .  A
C2055      H2062   1.083       .  S
C2056      C2057   1.411       .  A
C2057      C2058   1.405       .  A
C2057      F2064   1.358       .  S
C2058      C2059   1.407       .  A
C2058      H2063   1.083       .  S
C2059      C2060   1.409       .  A
C2060      F2061   1.357       .  S
