geometry optimzed in LAMMPS
_audit_creation_date              2020-12-01 
_audit_creation_method            'lammps2cif' 
_symmetry_space_group_name_H-M    'P1' 
_symmetry_Int_Tables_number       1 
_symmetry_cell_setting            triclinic 
loop_ 
_symmetry_equiv_pos_as_xyz 
  x,y,z 
_cell_length_a                    34.65307485 
_cell_length_b                    35.412360195270985 
_cell_length_c                    30.089980065697915 
_cell_angle_alpha                 90.04936796394276 
_cell_angle_beta                  89.98057170959544 
_cell_angle_gamma                 124.11422406888542 
loop_ 
_atom_site_label 
_atom_site_type_symbol 
_atom_site_fract_x 
_atom_site_fract_y 
_atom_site_fract_z 
_atom_site_charge 
O1          O  0.13599908  0.37500965  0.48161179    -0.76700
C2          C  0.13288408  0.24503130  0.47627682     0.84400
O3          O  0.28337528  0.38825097  0.41767450    -0.77800
O4          O  0.16192641  0.25753560  0.34251486    -0.79300
O5          O  0.08969491  0.33783888  0.33571770    -0.79100
O6          O  0.12702424  0.40638071  0.42167062    -0.77700
Zn7        Zn  0.17773797  0.35137407  0.46081537     1.55700
O8          O  0.06842191  0.26625987  0.34796538    -0.79100
Cd9        Cd  0.14996445  0.38148387  0.37258966     1.59700
Cd10       Cd  0.23542306  0.36659397  0.36680840     1.59600
O11         O  0.20021101  0.43505191  0.33167574    -0.79100
O12         O  0.17300208  0.34413287  0.39632607    -1.89600
Cd13       Cd  0.12703046  0.27670704  0.38307045     1.59900
O14         O  0.25674989  0.42306194  0.32527465    -0.79000
O15         O  0.11251891  0.23249497  0.43849074    -0.77700
C16         C  0.28366519  0.39698554  0.45885986     0.84800
C17         C  0.11904045  0.39539623  0.46255277     0.84500
O18         O  0.15594018  0.28740176  0.48754197    -0.76600
C19         C  0.06132142  0.29473810  0.32980930     0.85300
O20         O  0.24813865  0.39227498  0.47828241    -0.76700
C21         C  0.23935801  0.44584231  0.31543668     0.85400
C22         C  0.20263522  0.27187986  0.32786873     0.85800
O23         O  0.23663838  0.31356240  0.33308704    -0.79200
N24         N  0.24588664  0.23717633  0.29311446    -0.01700
C25         C  0.20769442  0.23563038  0.30843262     0.00900
C26         C  0.17069067  0.19011279  0.31152549    -0.21900
C27         C  0.18653510  0.16398286  0.29869259    -0.22200
C28         C  0.23244751  0.19330873  0.28792430     0.00800
H29         H  0.13555697  0.17688467  0.32254527     0.14600
H30         H  0.16620314  0.12785325  0.29436219     0.14700
N31         N  0.26198585  0.48177144  0.28205859    -0.01700
C32         C  0.23421067  0.97505991  0.24727033     0.00900
C33         C  0.24202003  0.95640187  0.21083394    -0.21900
C34         C  0.28391081  0.96233892  0.21916872    -0.22200
C35         C  0.30003131  0.98788544  0.25818819     0.00800
H36         H  0.22671728  0.95093274  0.17812622     0.14600
H37         H  0.30559945  0.96275562  0.19298221     0.14700
N38         N  0.02442812  0.27865445  0.29681655    -0.01700
C39         C  0.51956720  0.31082786  0.27514924     0.03500
C40         C  0.54778588  0.32830135  0.23758866    -0.21900
C41         C  0.55596480  0.29623769  0.22593881    -0.22200
C42         C  0.53535472  0.26397203  0.25923078     0.00800
H43         H  0.54821499  0.35116286  0.21354778     0.14600
H44         H  0.56448149  0.29149401  0.19267181     0.14700
N45         N  0.34248102  0.42728549  0.52162216    -0.01700
C46         C  0.32022891  0.39873350  0.48609375     0.00900
C47         C  0.30765069  0.35503027  0.49582338    -0.21900
C48         C  0.31000292  0.35316213  0.54065865    -0.22200
C49         C  0.32734891  0.39673679  0.55561226     0.00800
H50         H  0.28786030  0.32535346  0.47462585     0.14600
H51         H  0.29512283  0.32240397  0.56029214     0.14700
N52         N  0.08019504  0.41895841  0.51907367    -0.01700
C53         C  0.07839027  0.39327284  0.48336138     0.00900
C54         C  0.04182303  0.34800899  0.48822969    -0.21900
C55         C  0.02845162  0.34269262  0.53120291    -0.22200
C56         C  0.05472328  0.38550406  0.54983473     0.00800
H57         H  0.03392220  0.31995074  0.46670324     0.14600
H58         H  0.00544499  0.31052238  0.54805735     0.14700
O59         O  0.05404107  0.13213640  0.24894123    -0.76700
C60         C  0.47780017  0.08455005  0.34318280     0.84400
O61         O  0.40038782  0.49635256  0.19530555    -0.77800
O62         O  0.36620205  0.06076750  0.28380254    -0.79300
O63         O  0.52258053  0.20486300  0.21483654    -0.79100
O64         O  0.06230604  0.14706451  0.17791889    -0.77700
Zn65       Zn  0.48904476  0.07850278  0.24766894     1.55700
O66         O  0.47214892  0.18721605  0.27136890    -0.79100
Cd67       Cd  0.50220415  0.14712082  0.18301372     1.59700
Cd68       Cd  0.40636149  0.05467515  0.18451977     1.59600
O69         O  0.47798744  0.14064251  0.11986170    -0.79100
O70         O  0.45619931  0.09931183  0.22319963    -1.89600
Cd71       Cd  0.43686415  0.11647364  0.27771743     1.59900
O72         O  0.41623022  0.06881241  0.11670348    -0.79000
O73         O  0.46521782  0.11161070  0.33715349    -0.77700
C74         C  0.43349102  0.49161592  0.20252727     0.84800
C75         C  0.07711365  0.14108576  0.21375622     0.84500
O76         O  0.47948553  0.06235047  0.31107840    -0.76600
C77         C  0.50841828  0.21576024  0.24829313     0.85300
O78         O  0.47476525  0.52487894  0.21247901    -0.76700
C79         C  0.44669801  0.10612892  0.09782662     0.85400
C80         C  0.34102016  0.03558140  0.25135067     0.85800
O81         O  0.35125178  0.05047392  0.21165602    -0.79200
O82         O  0.01208492  0.40419904  0.25318567    -0.76700
C83         C  0.42286251  0.44624243  0.20494265     0.84400
O84         O  0.41287766  0.35868665  0.34887776    -0.77800
O85         O  0.29860470  0.30206951  0.25121604    -0.79300
O86         O  0.40993220  0.31580896  0.13110317    -0.79100
O87         O  0.00667752  0.39091781  0.18161082    -0.77700
Zn88       Zn  0.45409883  0.40176945  0.25238196     1.55700
O89         O  0.35251487  0.32600306  0.14333328    -0.79100
Cd90       Cd  0.44190629  0.33198914  0.19294302     1.59700
Cd91       Cd  0.39711842  0.31562628  0.29555710     1.59600
O92         O  0.45596344  0.29093335  0.22761384    -0.79100
O93         O  0.40747602  0.34386488  0.23703186    -1.89600
Cd94       Cd  0.35734602  0.34470054  0.21057827     1.59900
O95         O  0.44965187  0.30340951  0.29939252    -0.79000
O96         O  0.38063178  0.41247419  0.21019427    -0.77700
C97         C  0.43296418  0.40153614  0.34719768     0.84800
C98         C  0.02950519  0.41522414  0.21473308     0.84500
O99         O  0.45684131  0.44224996  0.20748424    -0.76600
C100        C  0.37638048  0.31793463  0.11719584     0.85300
O101        O  0.44729932  0.42291969  0.31072051    -0.76700
C102        C  0.47177365  0.29971760  0.26756458     0.85400
C103        C  0.29231954  0.27389661  0.28188725     0.85800
O104        O  0.32564116  0.27220127  0.29814650    -0.79200
O105        O  0.09204536  0.08763069  0.22519733    -0.76700
C106        C  0.07036625  0.46039891  0.20956967     0.84400
O107        O  0.17360095  0.06690974  0.34391118    -0.77800
O108        O  0.20566554  0.00883796  0.20241702    -0.79300
O109        O  0.19344530  0.12736027  0.13070621    -0.79100
O110        O  0.15294740  0.15694297  0.20693572    -0.77700
Zn111      Zn  0.11522146  0.05403879  0.24933893     1.55700
O112        O  0.17013766  0.05558032  0.11697771    -0.79100
Cd113      Cd  0.19748945  0.13647118  0.19783776     1.59700
Cd114      Cd  0.21070547  0.08194378  0.28339104     1.59600
O115        O  0.26276710  0.18038934  0.22413954    -0.79100
O116        O  0.17434715  0.07695864  0.22836173    -1.89600
Cd117      Cd  0.16610894  0.03194395  0.18198039     1.59900
O118        O  0.26652642  0.15062920  0.28626147    -0.79000
O119        O  0.10255178  0.46981798  0.18266125    -0.77700
C120        C  0.13157331  0.05507597  0.34722677     0.84800
C121        C  0.10963755  0.12853189  0.21378642     0.84500
O122        O  0.07220864  0.49000416  0.23429791    -0.76600
C123        C  0.17941253  0.09416960  0.10399812     0.85300
O124        O  0.10821442  0.05148697  0.31339081    -0.76700
C125        C  0.26029857  0.17856825  0.26623750     0.85400
C126        C  0.22032703  0.00698769  0.24085343     0.85800
O127        O  0.22454180  0.03230450  0.27354976    -0.79200
O128        O  0.52836664  0.07652044  0.38628921    -0.76700
C129        C  0.10579244  0.04256140  0.38897389     0.84400
O130        O  0.45371604  0.41500337  0.42331043    -0.77800
O131        O  0.09286991  0.49313860  0.50805187    -0.79300
O132        O  0.03770363  0.11386812  0.51268899    -0.79100
O133        O  0.46876175  0.06915792  0.42154039    -0.77700
Zn134      Zn  0.01524111  0.51668714  0.41050803     1.55700
O135        O  0.10146613  0.11113052  0.51430072    -0.79100
Cd136      Cd  0.48492697  0.05235084  0.48337953     1.59700
Cd137      Cd  0.47630286  0.45087677  0.48308514     1.59600
O138        O  0.41469484  0.49957352  0.50968591    -0.79100
O139        O  0.01536648  0.51686830  0.47216085    -1.89600
Cd140      Cd  0.08368893  0.04732074  0.48412599     1.59900
O141        O  0.41422347  0.43565650  0.51227840    -0.79000
O142        O  0.12156844  0.06713759  0.42385300    -0.77700
C143        C  0.44553064  0.42852272  0.38766795     0.84800
C144        C  0.49316156  0.07872017  0.38641760     0.84500
O145        O  0.06361405  0.00910132  0.38682732    -0.76600
C146        C  0.08173114  0.13301936  0.52026441     0.85300
O147        O  0.45558760  0.46862582  0.38455564    -0.76700
C148        C  0.39313770  0.45610424  0.51585845     0.85400
C149        C  0.06394753  0.44924631  0.51190712     0.85800
O150        O  0.01972167  0.43032797  0.50780580    -0.79200
N151        N  0.11106597  0.18118624  0.53426501    -0.01700
C152        C  0.14074995  0.21371945  0.50340719     0.00900
C153        C  0.18662880  0.23388688  0.51650686    -0.21900
C154        C  0.18624242  0.21990526  0.55860611    -0.22200
C155        C  0.14012991  0.19045277  0.56972901     0.00800
H156        H  0.21696129  0.26235265  0.50044321     0.14600
H157        H  0.21597970  0.23440105  0.58065942     0.14700
O158        O  0.97368941  0.42268760  0.88738006    -0.76700
C159        C  0.39747163  0.45637831  0.88893760     0.84400
O160        O  0.04801057  0.08350022  0.92378697    -0.77800
O161        O  0.40922069  0.00350636  0.00964866    -0.79300
O162        O  0.46423089  0.38306443  0.01241845    -0.79100
O163        O  0.03497078  0.43154728  0.92046835    -0.77700
Zn164      Zn  0.98713470  0.48008786  0.91056958     1.55700
O165        O  0.40078177  0.38641270  0.01441084    -0.79100
Cd166      Cd  0.01951701  0.44715441  0.98312760     1.59700
Cd167      Cd  0.02518749  0.04711777  0.98335546     1.59600
O168        O  0.08767012  0.99954380  0.00943713    -0.79100
O169        O  0.98818071  0.47997539  0.97226564    -1.89600
Cd170      Cd  0.41881243  0.45059976  0.98455810     1.59900
O171        O  0.08731399  0.06290994  0.01340469    -0.79000
O172        O  0.38104178  0.43177856  0.92377603    -0.77700
C173        C  0.05567965  0.07016148  0.88764957     0.84800
C174        C  0.00943192  0.42145335  0.88612040     0.84500
O175        O  0.43988012  0.48922763  0.88726663    -0.76600
C176        C  0.42027923  0.36424383  0.02018796     0.85300
O177        O  0.04454695  0.02972307  0.88353156    -0.76700
C178        C  0.10881140  0.04283684  0.01665439     0.85400
C179        C  0.43775072  0.04751190  0.01256256     0.85800
O180        O  0.48193837  0.06689379  0.00747083    -0.79200
O181        O  0.02736026  0.97686816  0.71204899    -0.76700
C182        C  0.42426102  0.35672586  0.71046805     0.84400
O183        O  0.03810449  0.38997740  0.83636551    -0.77800
O184        O  0.97847258  0.29414318  0.71507049    -0.79300
O185        O  0.08404954  0.42958530  0.61626925    -0.79100
O186        O  0.10120062  0.00490435  0.69299152    -0.77700
Zn187      Zn  0.01107355  0.42059206  0.74674196     1.55700
O188        O  0.02301152  0.35750494  0.62029896    -0.79100
Cd189      Cd  0.09408841  0.44414059  0.68381290     1.59700
Cd190      Cd  0.06501030  0.38363950  0.77694193     1.59600
O191        O  0.15054318  0.45009626  0.70978085    -0.79100
O192        O  0.04454700  0.40002963  0.72292880    -1.89600
Cd193      Cd  0.99865460  0.35164295  0.68300778     1.59900
O194        O  0.13601160  0.43981327  0.78201679    -0.79000
O195        O  0.43958113  0.35162130  0.67454562    -0.77700
C196        C  0.02369733  0.41553998  0.84244090     0.84800
C197        C  0.06853658  0.00989946  0.70145203     0.84500
O198        O  0.44619112  0.36351773  0.74597005    -0.76600
C199        C  0.05398519  0.39179520  0.59791414     0.85300
O200        O  0.01945617  0.43607184  0.81031266    -0.76700
C201        C  0.16150063  0.46468682  0.74954134     0.85400
C202        C  0.99272851  0.28335752  0.74849785     0.85800
O203        O  0.02888092  0.31221387  0.77166899    -0.79200
O204        O  0.49047758  0.09438954  0.75500521    -0.76700
C205        C  0.07993816  0.05539272  0.70463110     0.84400
O206        O  0.08769950  0.14068222  0.84996106    -0.77800
O207        O  0.20448515  0.19815446  0.75238071    -0.79300
O208        O  0.09167576  0.18131646  0.63071816    -0.79100
O209        O  0.49581738  0.10521030  0.68293792    -0.77700
Zn210      Zn  0.04978108  0.09935493  0.75334846     1.55700
O211        O  0.15109321  0.17440877  0.64379626    -0.79100
Cd212      Cd  0.06043887  0.16593928  0.69304483     1.59700
Cd213      Cd  0.10557223  0.18495867  0.79684451     1.59600
O214        O  0.04454327  0.20611541  0.72620241    -0.79100
O215        O  0.09621205  0.15730888  0.73807234    -1.89600
Cd216      Cd  0.14609036  0.15625883  0.71138615     1.59900
O217        O  0.05218713  0.19648515  0.79858991    -0.79000
O218        O  0.12227674  0.08853960  0.71076328    -0.77700
C219        C  0.06942851  0.09808919  0.84765490     0.84800
C220        C  0.47274398  0.08241771  0.71667897     0.84500
O221        O  0.04648855  0.06007095  0.70707275    -0.76600
C222        C  0.12617524  0.18059825  0.61712715     0.85300
O223        O  0.05772081  0.07749985  0.81064140    -0.76700
C224        C  0.02930601  0.19850047  0.76633146     0.85400
C225        C  0.21099959  0.22604640  0.78348569     0.85800
O226        O  0.17781113  0.22791184  0.80009668    -0.79200
O227        O  0.41111785  0.41115394  0.72418361    -0.76700
C228        C  0.43161158  0.03729530  0.71227244     0.84400
O229        O  0.33034823  0.43323782  0.84306527    -0.77800
O230        O  0.29697455  0.48946298  0.69946912    -0.79300
O231        O  0.30766278  0.37217236  0.62909637    -0.79100
O232        O  0.34988363  0.34321230  0.70276339    -0.77700
Zn233      Zn  0.38900874  0.44575850  0.74840000     1.55700
O234        O  0.33513909  0.44504120  0.61578665    -0.79100
Cd235      Cd  0.30569203  0.36381497  0.69600888     1.59700
Cd236      Cd  0.29386961  0.41831414  0.78211948     1.59600
O237        O  0.24161419  0.31876723  0.72361430    -0.79100
O238        O  0.33000125  0.42320487  0.72717000    -1.89600
Cd239      Cd  0.33802466  0.46789178  0.68069302     1.59900
O240        O  0.23861462  0.34956718  0.78536465    -0.79000
O241        O  0.39895624  0.02796871  0.68605727    -0.77700
C242        C  0.37216888  0.44457848  0.84675081     0.84800
C243        C  0.39300708  0.37066229  0.71087379     0.84500
O244        O  0.43017080  0.00761312  0.73650105    -0.76600
C245        C  0.32338165  0.40569988  0.60259443     0.85300
O246        O  0.39569244  0.44822077  0.81295665    -0.76700
C247        C  0.24471030  0.32137063  0.76566637     0.85400
C248        C  0.28304898  0.49198523  0.73802893     0.85800
O249        O  0.27982560  0.46758836  0.77114279    -0.79200
N250        N  0.15949491  0.07194750  0.02296316    -0.01700
C251        C  0.18180406  0.10052140  0.98747750     0.00900
C252        C  0.19363424  0.14402472  0.99706405    -0.21900
C253        C  0.19103362  0.14596265  0.04191519    -0.22200
C254        C  0.17432850  0.10257423  0.05699308     0.00800
H255        H  0.21304479  0.17365181  0.97579458     0.14600
H256        H  0.20561331  0.17675840  0.06148328     0.14700
N257        N  0.39086868  0.31624346  0.03461185    -0.01700
C258        C  0.36130285  0.28288267  0.00434099     0.00900
C259        C  0.31546654  0.26156020  0.01806252    -0.21900
C260        C  0.31592156  0.27622293  0.05983389    -0.22200
C261        C  0.36198122  0.30717669  0.07013262     0.00800
H262        H  0.28544183  0.23212568  0.00268641     0.14600
H263        H  0.28650991  0.26131333  0.08233472     0.14700
N264        N  0.42097108  0.07742581  0.01910260    -0.01700
C265        C  0.42309532  0.10242936  0.98267869     0.00900
C266        C  0.46041800  0.14748388  0.98665330    -0.21900
C267        C  0.47339618  0.15372314  0.02985420    -0.22200
C268        C  0.44632751  0.11145343  0.04943805     0.00800
H269        H  0.46899847  0.17514239  0.96427392     0.14600
H270        H  0.49673564  0.18621715  0.04608690     0.14700
O271        O  0.36532909  0.12063149  0.98185969    -0.76700
C272        C  0.37000431  0.25229973  0.97714132     0.84400
O273        O  0.21875463  0.11065513  0.91894642    -0.77800
O274        O  0.34106877  0.24070779  0.84279442    -0.79300
O275        O  0.41204151  0.16083655  0.83489356    -0.79100
O276        O  0.37602503  0.09204287  0.92058639    -0.77700
Zn277      Zn  0.32469320  0.14594248  0.96160614     1.55700
O278        O  0.43425427  0.23235585  0.84905880    -0.79100
Cd279      Cd  0.35238270  0.11691660  0.87231995     1.59700
Cd280      Cd  0.26671521  0.13189545  0.86785946     1.59600
O281        O  0.30222127  0.06375836  0.83127484    -0.79100
O282        O  0.32915596  0.15371811  0.89705341    -1.89600
Cd283      Cd  0.37521504  0.22107706  0.88370279     1.59900
O284        O  0.24569272  0.07585672  0.82547907    -0.79000
O285        O  0.38923637  0.26490972  0.93892963    -0.77700
C286        C  0.21859237  0.10240399  0.96025806     0.84800
C287        C  0.38286933  0.10116786  0.96193799     0.84500
O288        O  0.34802953  0.21008648  0.98870177    -0.76600
C289        C  0.44076635  0.20399136  0.82972395     0.85300
O290        O  0.25413871  0.10709149  0.97966222    -0.76700
C291        C  0.26322506  0.05330332  0.81500842     0.85400
C292        C  0.30036619  0.22678001  0.82850369     0.85800
O293        O  0.26601636  0.18535132  0.83431004    -0.79200
N294        N  0.24100991  0.01812545  0.78085344    -0.01700
C295        C  0.26885485  0.52357397  0.74428072     0.00900
C296        C  0.26085609  0.54225042  0.70803772    -0.21900
C297        C  0.21962895  0.53739455  0.71720046    -0.22200
C298        C  0.20365846  0.51191880  0.75625296     0.00800
H299        H  0.27566969  0.54743793  0.67512113     0.14600
H300        H  0.19784473  0.53758954  0.69150571     0.14700
N301        N  0.47724813  0.22035399  0.79624098    -0.01700
C302        C  0.98155204  0.18752290  0.77379742     0.00900
C303        C  0.95339789  0.17052772  0.73614349    -0.21900
C304        C  0.94558204  0.20297601  0.72503384    -0.22200
C305        C  0.96610917  0.23484954  0.75878272     0.00800
H306        H  0.95280352  0.14768376  0.71185434     0.14600
H307        H  0.93712966  0.20812279  0.69191429     0.14700
N308        N  0.25772128  0.26241855  0.79448072    -0.01700
C309        C  0.29589263  0.26322443  0.80852841     0.00900
C310        C  0.33394323  0.30842445  0.80952518    -0.21900
C311        C  0.31882994  0.33509855  0.79650277    -0.22200
C312        C  0.27229233  0.30643523  0.78764996     0.00800
H313        H  0.36930689  0.32103473  0.81921678     0.14600
H314        H  0.34020457  0.37147255  0.79093273     0.14700
O315        O  0.13986079  0.87812165  0.48147075    -0.76700
C316        C  0.13419162  0.74655214  0.47630407     0.84400
O317        O  0.28548824  0.88730977  0.41815733    -0.77800
O318        O  0.16099946  0.75690371  0.34132641    -0.79300
O319        O  0.09152440  0.83954563  0.33492342    -0.79100
O320        O  0.13042077  0.90873500  0.42121445    -0.77700
Zn321      Zn  0.18036445  0.85314885  0.46048940     1.55700
O322        O  0.06937294  0.76787133  0.34815423    -0.79100
Cd323      Cd  0.15202576  0.88243633  0.37221905     1.59700
Cd324      Cd  0.23731425  0.86634217  0.36665521     1.59600
O325        O  0.20229601  0.93515837  0.33130464    -0.79100
O326        O  0.17500246  0.84499535  0.39597541    -1.89600
Cd327      Cd  0.12800721  0.77759381  0.38280044     1.59900
O328        O  0.25862690  0.92285080  0.32438406    -0.79000
O329        O  0.11391613  0.73376071  0.43848198    -0.77700
C330        C  0.28606435  0.89679894  0.45927540     0.84800
C331        C  0.12289202  0.89842180  0.46227197     0.84500
O332        O  0.15729485  0.78901111  0.48731527    -0.76600
C333        C  0.06273151  0.79643876  0.32941515     0.85300
O334        O  0.25081882  0.89300577  0.47828673    -0.76700
C335        C  0.24111652  0.94562449  0.31463343     0.85400
C336        C  0.20156694  0.77060953  0.32678959     0.85800
O337        O  0.23622405  0.81196631  0.33260190    -0.79200
N338        N  0.24376247  0.73550293  0.29098127    -0.01700
C339        C  0.20581927  0.73407133  0.30670850     0.00900
C340        C  0.16863458  0.68856761  0.30948757    -0.21900
C341        C  0.18425520  0.66232176  0.29609596    -0.22200
C342        C  0.23021259  0.69169341  0.28524282     0.00800
H343        H  0.13364163  0.67544064  0.32089047     0.14600
H344        H  0.16378856  0.62609798  0.29193700     0.14700
N345        N  0.26302328  0.98125101  0.28092892    -0.01700
C346        C  0.23390484  0.47560733  0.24774114     0.00900
C347        C  0.24245307  0.45702580  0.21174862    -0.21900
C348        C  0.28401753  0.46268411  0.22118259    -0.22200
C349        C  0.29944782  0.48832749  0.26016201     0.00800
H350        H  0.22785870  0.45164303  0.17871459     0.14600
H351        H  0.30617701  0.46294769  0.19561774     0.14700
N352        N  0.02593665  0.78020444  0.29620881    -0.01700
C353        C  0.51725553  0.81048531  0.27666392     0.03500
C354        C  0.54511760  0.82817380  0.23888465    -0.21900
C355        C  0.55315507  0.79616567  0.22665165    -0.22200
C356        C  0.53322299  0.76397266  0.26003341     0.00800
H357        H  0.54516514  0.85094738  0.21505053     0.14600
H358        H  0.56130897  0.79149475  0.19319691     0.14700
N359        N  0.34446577  0.92789892  0.52291292    -0.01700
C360        C  0.32279209  0.89922386  0.48720332     0.00900
C361        C  0.31134631  0.85589099  0.49694999    -0.21900
C362        C  0.31382155  0.85407583  0.54182303    -0.22200
C363        C  0.32991217  0.89731642  0.55697810     0.00800
H364        H  0.29215771  0.82612238  0.47576004     0.14600
H365        H  0.29957099  0.82333726  0.56135936     0.14700
N366        N  0.08335145  0.92145478  0.51875705    -0.01700
C367        C  0.08208950  0.89613554  0.48296618     0.00900
C368        C  0.04561509  0.85082189  0.48750357    -0.21900
C369        C  0.03192548  0.84514081  0.53043065    -0.22200
C370        C  0.05782869  0.88781045  0.54936202     0.00800
H371        H  0.03795040  0.82297245  0.46578449     0.14600
H372        H  0.00880925  0.81285099  0.54702813     0.14700
O373        O  0.05316165  0.63254419  0.24892417    -0.76700
C374        C  0.47717019  0.58250358  0.34381703     0.84400
O375        O  0.39984927  0.99543453  0.19470416    -0.77800
O376        O  0.36641766  0.56073132  0.28577378    -0.79300
O377        O  0.52108422  0.70523148  0.21565451    -0.79100
O378        O  0.05986664  0.64535028  0.17752343    -0.77700
Zn379      Zn  0.48886139  0.57842555  0.24853181     1.55700
O380        O  0.47181946  0.68685778  0.27346168    -0.79100
Cd381      Cd  0.50236725  0.64784485  0.18427896     1.59700
Cd382      Cd  0.40622460  0.55544682  0.18555097     1.59600
O383        O  0.47918378  0.64093941  0.12039747    -0.79100
O384        O  0.45628375  0.59973069  0.22429312    -1.89600
Cd385      Cd  0.43716976  0.61620175  0.27944833     1.59900
O386        O  0.41604952  0.56989202  0.11745179    -0.79000
O387        O  0.46594470  0.61066037  0.33818668    -0.77700
C388        C  0.43258623  0.99035467  0.20257803     0.84800
C389        C  0.07530529  0.64013026  0.21332461     0.84500
O390        O  0.47776281  0.55991278  0.31146147    -0.76600
C391        C  0.50712450  0.71576192  0.24953715     0.85300
O392        O  0.47378118  0.02335825  0.21328269    -0.76700
C393        C  0.44734434  0.60675180  0.09836540     0.85400
C394        C  0.34077029  0.53590068  0.25336653     0.85800
O395        O  0.35100231  0.55081014  0.21363401    -0.79200
O396        O  0.01094387  0.90530659  0.25431334    -0.76700
C397        C  0.42151467  0.94479054  0.20445603     0.84400
O398        O  0.41224214  0.85928106  0.34947333    -0.77800
O399        O  0.29702419  0.79987960  0.24894244    -0.79300
O400        O  0.41151128  0.81597113  0.13135681    -0.79100
O401        O  0.00678643  0.89238148  0.18266723    -0.77700
Zn402      Zn  0.45146048  0.90086972  0.25291310     1.55700
O403        O  0.35345849  0.82539844  0.14250365    -0.79100
Cd404      Cd  0.44182110  0.83169260  0.19414139     1.59700
Cd405      Cd  0.39509816  0.81493356  0.29656052     1.59600
O406        O  0.45304218  0.78907117  0.22940184    -0.79100
O407        O  0.40608704  0.84260966  0.23745954    -1.89600
Cd408      Cd  0.35652184  0.84343151  0.20967793     1.59900
O409        O  0.44675126  0.80166544  0.30107834    -0.79000
O410        O  0.37923668  0.91113261  0.20976152    -0.77700
C411        C  0.43071349  0.90190455  0.34710450     0.84800
C412        C  0.02918986  0.91634891  0.21613770     0.84500
O413        O  0.45516657  0.94034673  0.20649626    -0.76600
C414        C  0.37788050  0.81766149  0.11683201     0.85300
O415        O  0.44249476  0.92238743  0.31006107    -0.76700
C416        C  0.46913091  0.79843476  0.26921873     0.85400
C417        C  0.29032171  0.77234457  0.28047748     0.85800
O418        O  0.32345876  0.77140212  0.29839930    -0.79200
O419        O  0.09047960  0.58699935  0.22643938    -0.76700
C420        C  0.07074292  0.96130711  0.21134008     0.84400
O421        O  0.17359448  0.56838376  0.34399566    -0.77800
O422        O  0.20616696  0.50944822  0.20197948    -0.79300
O423        O  0.19240800  0.62561258  0.12909728    -0.79100
O424        O  0.15056026  0.65517208  0.20417555    -0.77700
Zn425      Zn  0.11348157  0.55259065  0.24892689     1.55700
O426        O  0.17013633  0.55414623  0.11581804    -0.79100
Cd427      Cd  0.19544215  0.63497324  0.19597638     1.59700
Cd428      Cd  0.20934381  0.58181270  0.28271891     1.59600
O429        O  0.26090207  0.67919888  0.22154612    -0.79100
O430        O  0.17263155  0.57598500  0.22748616    -1.89600
Cd431      Cd  0.16578425  0.53135670  0.18123824     1.59900
O432        O  0.26552227  0.65010855  0.28368342    -0.79000
O433        O  0.10214229  0.97076163  0.18338475    -0.77700
C434        C  0.13094778  0.55448975  0.34743042     0.84800
C435        C  0.10764026  0.62732094  0.21324202     0.84500
O436        O  0.07355452  0.99098772  0.23665121    -0.76600
C437        C  0.17940352  0.59260905  0.10248938     0.85300
O438        O  0.10687375  0.54891461  0.31344977    -0.76700
C439        C  0.25847534  0.67743279  0.26361544     0.85400
C440        C  0.21984343  0.50726000  0.24078944     0.85800
O441        O  0.22298581  0.53207170  0.27348750    -0.79200
O442        O  0.52726040  0.57360515  0.38675584    -0.76700
C443        C  0.10548957  0.54228464  0.38952294     0.84400
O444        O  0.45311801  0.91661760  0.42299634    -0.77800
O445        O  0.09462767  0.99490870  0.50769225    -0.79300
O446        O  0.03868121  0.61527136  0.51221073    -0.79100
O447        O  0.46774837  0.56655900  0.42191716    -0.77700
Zn448      Zn  0.01520075  0.01624195  0.40961406     1.55700
O449        O  0.10190831  0.61165460  0.51458116    -0.79100
Cd450      Cd  0.48368512  0.55032229  0.48393449     1.59700
Cd451      Cd  0.47786289  0.95310228  0.48250539     1.59600
O452        O  0.41591282  0.00075428  0.50943211    -0.79100
O453        O  0.01547837  0.01637998  0.47123745    -1.89600
Cd454      Cd  0.08354082  0.54708566  0.48491195     1.59900
O455        O  0.41699208  0.93781435  0.51423080    -0.79000
O456        O  0.12159615  0.56676948  0.42446504    -0.77700
C457        C  0.44519443  0.93005137  0.38709001     0.84800
C458        C  0.49219184  0.57600833  0.38686714     0.84500
O459        O  0.06325680  0.50896735  0.38772223    -0.76600
C460        C  0.08261207  0.63408612  0.51992240     0.85300
O461        O  0.45704897  0.97074069  0.38301991    -0.76700
C462        C  0.39514650  0.95754224  0.51697432     0.85400
C463        C  0.06629448  0.95098808  0.51131161     0.85800
O464        O  0.02199621  0.93134228  0.50657772    -0.79200
N465        N  0.11211199  0.68224383  0.53403889    -0.01700
C466        C  0.14217757  0.71555639  0.50388089     0.00900
C467        C  0.18781542  0.73675039  0.51831116    -0.21900
C468        C  0.18667428  0.72217373  0.56025468    -0.22200
C469        C  0.14046748  0.69133507  0.57002305     0.00800
H470        H  0.21820646  0.76610835  0.50322893     0.14600
H471        H  0.21578075  0.73696834  0.58312550     0.14700
O472        O  0.97425458  0.92417709  0.88629062    -0.76700
C473        C  0.39591792  0.95522454  0.89134666     0.84400
O474        O  0.04771879  0.58134913  0.92202346    -0.77800
O475        O  0.40940386  0.50408555  0.00843297    -0.79300
O476        O  0.46537990  0.88300755  0.01205192    -0.79100
O477        O  0.03536089  0.93354120  0.92028307    -0.77700
Zn478      Zn  0.98577226  0.98076190  0.91042803     1.55700
O479        O  0.40173263  0.88589709  0.01511512    -0.79100
Cd480      Cd  0.01888204  0.94858675  0.98274594     1.59700
Cd481      Cd  0.02626057  0.54620461  0.98240603     1.59600
O482        O  0.08869659  0.49814853  0.00907012    -0.79100
O483        O  0.98698722  0.98089941  0.97203517    -1.89600
Cd484      Cd  0.41903426  0.95014537  0.98600113     1.59900
O485        O  0.08892527  0.56194368  0.01121077    -0.79000
O486        O  0.38015834  0.93046610  0.92608463    -0.77700
C487        C  0.05597527  0.56805433  0.88617130     0.84800
C488        C  0.01022404  0.92326754  0.88561589     0.84500
O489        O  0.43815917  0.98844158  0.88936881    -0.76600
C490        C  0.42145997  0.86385442  0.02010424     0.85300
O491        O  0.04609746  0.52799762  0.88283548    -0.76700
C492        C  0.11016552  0.54166174  0.01515478     0.85400
C493        C  0.43831113  0.54789233  0.01276432     0.85800
O494        O  0.48258140  0.56688257  0.00879792    -0.79200
O495        O  0.02665149  0.47576655  0.71209266    -0.76700
C496        C  0.42464004  0.85675817  0.71377983     0.84400
O497        O  0.03788649  0.89064675  0.83593517    -0.77800
O498        O  0.98033805  0.79629776  0.71539954    -0.79300
O499        O  0.08644696  0.93148195  0.61605686    -0.79100
O500        O  0.10048388  0.50317090  0.69348022    -0.77700
Zn501      Zn  0.01316570  0.92261218  0.74704455     1.55700
O502        O  0.02441908  0.85981646  0.61955261    -0.79100
Cd503      Cd  0.09555329  0.94620996  0.68355114     1.59700
Cd504      Cd  0.06619793  0.88545010  0.77677213     1.59600
O505        O  0.15226764  0.95335542  0.71001702    -0.79100
O506        O  0.04615209  0.90182000  0.72252871    -1.89600
Cd507      Cd  0.00016875  0.85355563  0.68281682     1.59900
O508        O  0.13680963  0.94192689  0.78216981    -0.79000
O509        O  0.43960499  0.85229091  0.67726862    -0.77700
C510        C  0.02530531  0.91767446  0.84218126     0.84800
C511        C  0.06795852  0.50852458  0.70137443     0.84500
O512        O  0.44768466  0.86438251  0.74867570    -0.76600
C513        C  0.05619565  0.89392712  0.59743557     0.85300
O514        O  0.02340834  0.93986123  0.81023707    -0.76700
C515        C  0.16269198  0.96717431  0.75003829     0.85400
C516        C  0.99465667  0.78553050  0.74881208     0.85800
O517        O  0.03121395  0.81431545  0.77151193    -0.79200
O518        O  0.49074685  0.59502069  0.75467580    -0.76700
C519        C  0.07965301  0.55422126  0.70352158     0.84400
O520        O  0.08526395  0.63781655  0.84833622    -0.77800
O521        O  0.20369879  0.69762295  0.75174801    -0.79300
O522        O  0.09101945  0.68091262  0.63043670    -0.79100
O523        O  0.49628450  0.60773321  0.68290396    -0.77700
Zn524      Zn  0.05013894  0.59787210  0.75205540     1.55700
O525        O  0.15008189  0.67337349  0.64348127    -0.79100
Cd526      Cd  0.05991720  0.66548334  0.69273001     1.59700
Cd527      Cd  0.10378506  0.68280906  0.79595374     1.59600
O528        O  0.04282782  0.70486685  0.72554223    -0.79100
O529        O  0.09557917  0.65612094  0.73715012    -1.89600
Cd530      Cd  0.14546575  0.65503973  0.71075968     1.59900
O531        O  0.05117538  0.69532247  0.79781918    -0.79000
O532        O  0.12191275  0.58725286  0.71034893    -0.77700
C533        C  0.06919545  0.59569339  0.84596026     0.84800
C534        C  0.47334759  0.58382938  0.71617956     0.84500
O535        O  0.04646754  0.55937520  0.70453862    -0.76600
C536        C  0.12553003  0.68015570  0.61694381     0.85300
O537        O  0.05930884  0.57545236  0.80878631    -0.76700
C538        C  0.02849859  0.69821222  0.76594491     0.85400
C539        C  0.20945956  0.72487505  0.78324800     0.85800
O540        O  0.17575588  0.72577665  0.79997982    -0.79200
O541        O  0.40982377  0.90973368  0.72896746    -0.76700
C542        C  0.43269397  0.53862423  0.71078792     0.84400
O543        O  0.32763577  0.92937835  0.84604281    -0.77800
O544        O  0.29462833  0.98675760  0.70231464    -0.79300
O545        O  0.30968537  0.87185257  0.63054517    -0.79100
O546        O  0.34948565  0.84182763  0.70630226    -0.77700
Zn547      Zn  0.38787289  0.94498392  0.75111778     1.55700
O548        O  0.33452454  0.94407764  0.61767089    -0.79100
Cd549      Cd  0.30524301  0.86235820  0.69784055     1.59700
Cd550      Cd  0.29214845  0.91625392  0.78450364     1.59600
O551        O  0.23991831  0.81731544  0.72376551    -0.79100
O552        O  0.32876206  0.92152793  0.72952243    -1.89600
Cd553      Cd  0.33631796  0.96603915  0.68307738     1.59900
O554        O  0.23524767  0.84817527  0.78470646    -0.79000
O555        O  0.40089155  0.52935730  0.68348550    -0.77700
C556        C  0.37028195  0.94321442  0.84940761     0.84800
C557        C  0.39241452  0.86952180  0.71523041     0.84500
O558        O  0.43078432  0.50880068  0.73518605    -0.76600
C559        C  0.32465866  0.90543601  0.60416530     0.85300
O560        O  0.39427119  0.94874975  0.81540087    -0.76700
C561        C  0.24184900  0.81993519  0.76587386     0.85400
C562        C  0.28252290  0.99077807  0.74127749     0.85800
O563        O  0.27991289  0.96694315  0.77463025    -0.79200
N564        N  0.16085858  0.57067849  0.02119832    -0.01700
C565        C  0.18313495  0.59921341  0.98566367     0.00900
C566        C  0.19560327  0.64289570  0.99536445    -0.21900
C567        C  0.19315301  0.64483789  0.04018880    -0.22200
C568        C  0.17586418  0.60131848  0.05522982     0.00800
H569        H  0.21520325  0.67251416  0.97410553     0.14600
H570        H  0.20782608  0.67562463  0.05978976     0.14700
N571        N  0.39236398  0.81569745  0.03408482    -0.01700
C572        C  0.36261632  0.78254695  0.00366077     0.00900
C573        C  0.31684170  0.76125204  0.01755122    -0.21900
C574        C  0.31748677  0.77557299  0.05949868    -0.22200
C575        C  0.36357943  0.80632347  0.06977483     0.00800
H576        H  0.28667541  0.73207022  0.00204489     0.14600
H577        H  0.28809873  0.76075637  0.08201695     0.14700
N578        N  0.42191154  0.57812670  0.01922401    -0.01700
C579        C  0.42444800  0.60317418  0.98259022     0.00900
C580        C  0.46188835  0.64815497  0.98683980    -0.21900
C581        C  0.47481076  0.65425089  0.03011146    -0.22200
C582        C  0.44732347  0.61203635  0.04974183     0.00800
H583        H  0.47085464  0.67589531  0.96442104     0.14600
H584        H  0.49837506  0.68668280  0.04635891     0.14700
O585        O  0.36653578  0.62111410  0.98042556    -0.76700
C586        C  0.37095303  0.75195391  0.97594397     0.84400
O587        O  0.21950401  0.60929389  0.91693295    -0.77800
O588        O  0.34015396  0.74115789  0.84305987    -0.79300
O589        O  0.41308388  0.66142454  0.83358169    -0.79100
O590        O  0.37781604  0.59262791  0.91947045    -0.77700
Zn591      Zn  0.32560935  0.64567269  0.95949187     1.55700
O592        O  0.43408053  0.73277468  0.84690678    -0.79100
Cd593      Cd  0.35318013  0.61662826  0.87045384     1.59700
Cd594      Cd  0.26732662  0.63155745  0.86573119     1.59600
O595        O  0.30247514  0.56340176  0.82869938    -0.79100
O596        O  0.32989931  0.65355179  0.89494766    -1.89600
Cd597      Cd  0.37536500  0.72126192  0.88218568     1.59900
O598        O  0.24621408  0.57592049  0.82285633    -0.79000
O599        O  0.39062025  0.76491160  0.93795233    -0.77700
C600        C  0.21956532  0.60088152  0.95815970     0.84800
C601        C  0.38443094  0.60184223  0.96091256     0.84500
O602        O  0.34837349  0.70952722  0.98683675    -0.76600
C603        C  0.44132887  0.70463909  0.82821213     0.85300
O604        O  0.25528930  0.60582789  0.97737473    -0.76700
C605        C  0.26345880  0.55313273  0.81238129     0.85400
C606        C  0.29931240  0.72688694  0.82888468     0.85800
O607        O  0.26556296  0.68500584  0.83347291    -0.79200
N608        N  0.24068883  0.51772049  0.77839203    -0.01700
C609        C  0.26992079  0.02364400  0.74757925     0.00900
C610        C  0.26402314  0.04374434  0.71119849    -0.21900
C611        C  0.22302881  0.03979546  0.71901198    -0.22200
C612        C  0.20529232  0.01372279  0.75757334     0.00800
H613        H  0.27985843  0.04918357  0.67875965     0.14600
H614        H  0.20248817  0.04105921  0.69265412     0.14700
N615        N  0.47835799  0.72127767  0.79533771    -0.01700
C616        C  0.98162126  0.68897133  0.77419701     0.00900
C617        C  0.95231678  0.67191451  0.73733886    -0.21900
C618        C  0.94494879  0.70478215  0.72671932    -0.22200
C619        C  0.96734614  0.73715083  0.75983810     0.00800
H620        H  0.95029895  0.64828846  0.71309027     0.14600
H621        H  0.93550273  0.70967865  0.69397558     0.14700
N622        N  0.25577762  0.76168548  0.79479306    -0.01700
C623        C  0.29387475  0.76331838  0.81057454     0.00900
C624        C  0.33077622  0.80888409  0.81390115    -0.21900
C625        C  0.31512435  0.83491200  0.80020696    -0.22200
C626        C  0.26933308  0.80553234  0.78895774     0.00800
H627        H  0.36583835  0.82214382  0.82517970     0.14600
H628        H  0.33585726  0.87136043  0.79554784     0.14700
O629        O  0.63728448  0.37805432  0.48135478    -0.76700
C630        C  0.63360643  0.24781719  0.47771019     0.84400
O631        O  0.78415976  0.38927804  0.41816273    -0.77800
O632        O  0.66228506  0.25864938  0.34412231    -0.79300
O633        O  0.59030246  0.33929364  0.33430857    -0.79100
O634        O  0.62678013  0.40747036  0.42070284    -0.77700
Zn635      Zn  0.67891328  0.35413945  0.46088719     1.55700
O636        O  0.56881708  0.26780175  0.34750632    -0.79100
Cd637      Cd  0.65001575  0.38256674  0.37212351     1.59700
Cd638      Cd  0.73599030  0.36792612  0.36710616     1.59600
O639        O  0.70029380  0.43610667  0.33178201    -0.79100
O640        O  0.67346283  0.34573760  0.39647503    -1.89600
Cd641      Cd  0.62707902  0.27812801  0.38391899     1.59900
O642        O  0.75702510  0.42435124  0.32538196    -0.79000
O643        O  0.61265856  0.23449716  0.44019815    -0.77700
C644        C  0.78477303  0.39844807  0.45931765     0.84800
C645        C  0.61954557  0.39748408  0.46182646     0.84500
O646        O  0.65682581  0.29042532  0.48808144    -0.76600
C647        C  0.56199397  0.29618742  0.32854168     0.85300
O648        O  0.74954393  0.39455328  0.47854922    -0.76700
C649        C  0.73940682  0.44694375  0.31550652     0.85400
C650        C  0.70273240  0.27278643  0.32882442     0.85800
O651        O  0.73674943  0.31460227  0.33320381    -0.79200
N652        N  0.74495322  0.23734461  0.29271508    -0.01700
C653        C  0.70738103  0.23620429  0.30943477     0.00900
C654        C  0.67030612  0.19077207  0.31336784    -0.21900
C655        C  0.68539751  0.16429332  0.29959325    -0.22200
C656        C  0.73098839  0.19330581  0.28758552     0.00800
H657        H  0.63559645  0.17782715  0.32552746     0.14600
H658        H  0.66473888  0.12809928  0.29566627     0.14700
N659        N  0.76154124  0.48258725  0.28187969    -0.01700
C660        C  0.73093014  0.97441534  0.24682555     0.00900
C661        C  0.73749542  0.95494079  0.21030548    -0.21900
C662        C  0.77925593  0.96037987  0.21782141    -0.22200
C663        C  0.79647973  0.98614727  0.25664607     0.00800
H664        H  0.72140636  0.94908703  0.17794301     0.14600
H665        H  0.80016019  0.95994373  0.19130950     0.14700
N666        N  0.52549780  0.27992120  0.29501725    -0.01700
C667        C  0.01898174  0.31007889  0.27748993     0.03500
C668        C  0.04749360  0.32786905  0.24012168    -0.21900
C669        C  0.05486830  0.29540707  0.22775965    -0.22200
C670        C  0.03382914  0.26274899  0.26067261     0.00800
H671        H  0.04854585  0.35137192  0.21652638     0.14600
H672        H  0.06347226  0.29100901  0.19440268     0.14700
N673        N  0.84331399  0.42803348  0.52272141    -0.01700
C674        C  0.82125762  0.39994972  0.48677993     0.00900
C675        C  0.80873110  0.35617071  0.49604952    -0.21900
C676        C  0.81062600  0.35371277  0.54091861    -0.22200
C677        C  0.82780163  0.39705691  0.55641829     0.00800
H678        H  0.78930053  0.32676351  0.47445585     0.14600
H679        H  0.79575873  0.32274253  0.56019867     0.14700
N680        N  0.57989997  0.41977026  0.51861920    -0.01700
C681        C  0.57862225  0.39490011  0.48244230     0.00900
C682        C  0.54215586  0.34948620  0.48650323    -0.21900
C683        C  0.52837383  0.34325074  0.52942812    -0.22200
C684        C  0.55420917  0.38571563  0.54878461     0.00800
H685        H  0.53461023  0.32190953  0.46443009     0.14600
H686        H  0.50533020  0.31075444  0.54572322     0.14700
O687        O  0.55280460  0.13367445  0.24817157    -0.76700
C688        C  0.97610860  0.08088597  0.34281445     0.84400
O689        O  0.89970360  0.49573050  0.19532001    -0.77800
O690        O  0.86479116  0.05784542  0.28216349    -0.79300
O691        O  0.02165734  0.20432248  0.21565244    -0.79100
O692        O  0.55982365  0.14508035  0.17659643    -0.77700
Zn693      Zn  0.98962546  0.07762922  0.24716828     1.55700
O694        O  0.97155860  0.18533957  0.27286579    -0.79100
Cd695      Cd  0.00333260  0.14732181  0.18345195     1.59700
Cd696      Cd  0.90700534  0.05459778  0.18415947     1.59600
O697        O  0.97967625  0.14054339  0.11964111    -0.79100
O698        O  0.95684866  0.09890358  0.22317785    -1.89600
Cd699      Cd  0.93590836  0.11414165  0.27778513     1.59900
O700        O  0.91713796  0.06908684  0.11662145    -0.79000
O701        O  0.96310631  0.10767244  0.33725886    -0.77700
C702        C  0.93309856  0.49138827  0.20245714     0.84800
C703        C  0.57508351  0.14058120  0.21287681     0.84500
O704        O  0.97884058  0.05975844  0.31026498    -0.76600
C705        C  0.00736663  0.21452602  0.24954995     0.85300
O706        O  0.97436384  0.52498400  0.21181177    -0.76700
C707        C  0.94788496  0.10620550  0.09768391     0.85400
C708        C  0.83895277  0.03308626  0.24973814     0.85800
O709        O  0.84982754  0.04742234  0.20991373    -0.79200
O710        O  0.51071262  0.40301389  0.25192564    -0.76700
C711        C  0.92305258  0.44625173  0.20563573     0.84400
O712        O  0.91089635  0.35730790  0.35024518    -0.77800
O713        O  0.79859647  0.30177354  0.25049746    -0.79300
O714        O  0.91175879  0.31483159  0.13203525    -0.79100
O715        O  0.50547962  0.39125890  0.18010883    -0.77700
Zn716      Zn  0.95472384  0.40176367  0.25386993     1.55700
O717        O  0.85454939  0.32548053  0.14320962    -0.79100
Cd718      Cd  0.94290310  0.33174317  0.19436618     1.59700
Cd719      Cd  0.89628892  0.31492252  0.29649983     1.59600
O720        O  0.95578660  0.29027632  0.22964411    -0.79100
O721        O  0.90811464  0.34386411  0.23795956    -1.89600
Cd722      Cd  0.85814464  0.34434931  0.21042054     1.59900
O723        O  0.94906538  0.30302806  0.30120738    -0.79000
O724        O  0.88086281  0.41202271  0.20958437    -0.77700
C725        C  0.93193070  0.40027353  0.34869672     0.84800
C726        C  0.52821533  0.41487082  0.21359541     0.84500
O727        O  0.95741429  0.44303007  0.21000152    -0.76600
C728        C  0.87843814  0.31701826  0.11751660     0.85300
O729        O  0.94745400  0.42180826  0.31243130    -0.76700
C730        C  0.97137385  0.29922731  0.26963442     0.85400
C731        C  0.79167768  0.27364736  0.28150213     0.85800
O732        O  0.82462645  0.27157113  0.29817336    -0.79200
O733        O  0.58936805  0.08696550  0.22645753    -0.76700
C734        C  0.56874235  0.46025353  0.20920823     0.84400
O735        O  0.67298413  0.06783866  0.34454328    -0.77800
O736        O  0.70254622  0.00847144  0.20231099    -0.79300
O737        O  0.69111314  0.12700212  0.13074766    -0.79100
O738        O  0.65034512  0.15581236  0.20677445    -0.77700
Zn739      Zn  0.61259274  0.05338652  0.25070368     1.55700
O740        O  0.66766852  0.05519992  0.11735902    -0.79100
Cd741      Cd  0.69470880  0.13557275  0.19784013     1.59700
Cd742      Cd  0.70845830  0.08168568  0.28335610     1.59600
O743        O  0.76014453  0.17974546  0.22337226    -0.79100
O744        O  0.67141861  0.07639073  0.22885800    -1.89600
Cd745      Cd  0.66315115  0.03171336  0.18229967     1.59900
O746        O  0.76453672  0.15013288  0.28527683    -0.79000
O747        O  0.60209972  0.46986971  0.18388539    -0.77700
C748        C  0.63103077  0.05597884  0.34850090     0.84800
C749        C  0.60711001  0.12761780  0.21395455     0.84500
O750        O  0.56941684  0.48957513  0.23349386    -0.76600
C751        C  0.67746221  0.09386504  0.10413047     0.85300
O752        O  0.60691346  0.05163656  0.31499091    -0.76700
C753        C  0.75819671  0.17808239  0.26546098     0.85400
C754        C  0.71717366  0.00641667  0.24067135     0.85800
O755        O  0.72155444  0.03166102  0.27346876    -0.79200
O756        O  0.02657976  0.07274414  0.38588391    -0.76700
C757        C  0.60615084  0.04418895  0.39064442     0.84400
O758        O  0.95220181  0.41382414  0.42493331    -0.77800
O759        O  0.59226849  0.49391186  0.50859452    -0.79300
O760        O  0.53896435  0.11694595  0.51326353    -0.79100
O761        O  0.96686271  0.06493720  0.42118215    -0.77700
Zn762      Zn  0.51496013  0.51691432  0.41108256     1.55700
O763        O  0.60232934  0.11355116  0.51538868    -0.79100
Cd764      Cd  0.98394645  0.04896709  0.48302189     1.59700
Cd765      Cd  0.97655326  0.45061681  0.48408017     1.59600
O766        O  0.91571625  0.50003742  0.51026437    -0.79100
O767        O  0.51466726  0.51723632  0.47271256    -1.89600
Cd768      Cd  0.58408323  0.04947536  0.48516677     1.59900
O769        O  0.91511878  0.43614721  0.51447871    -0.79000
O770        O  0.62235406  0.06928900  0.42514686    -0.77700
C771        C  0.94450240  0.42739137  0.38903294     0.84800
C772        C  0.99118144  0.07456715  0.38600384     0.84500
O773        O  0.56400875  0.01076639  0.38915890    -0.76600
C774        C  0.58287817  0.13575666  0.52112072     0.85300
O775        O  0.95552993  0.46779201  0.38526770    -0.76700
C776        C  0.89407434  0.45670159  0.51729070     0.85400
C777        C  0.56349282  0.44995441  0.51191786     0.85800
O778        O  0.51928709  0.43083997  0.50747213    -0.79200
N779        N  0.61226274  0.18371865  0.53572161    -0.01700
C780        C  0.64210365  0.21732629  0.50568328     0.00900
C781        C  0.68777587  0.23866650  0.52003457    -0.21900
C782        C  0.68689132  0.22364083  0.56174830    -0.22200
C783        C  0.64074536  0.19250431  0.57158090     0.00800
H784        H  0.71801642  0.26812997  0.50497028     0.14600
H785        H  0.71609885  0.23829324  0.58448745     0.14700
O786        O  0.47383025  0.42311743  0.88751324    -0.76700
C787        C  0.89788067  0.45508102  0.89049693     0.84400
O788        O  0.54812254  0.08243822  0.92330495    -0.77800
O789        O  0.90874253  0.00307966  0.00879611    -0.79300
O790        O  0.96601936  0.38195124  0.01252902    -0.79100
O791        O  0.53524861  0.43265726  0.92064611    -0.77700
Zn792      Zn  0.48684558  0.48040922  0.91061576     1.55700
O793        O  0.90237753  0.38484535  0.01491054    -0.79100
Cd794      Cd  0.51849606  0.44794869  0.98323206     1.59700
Cd795      Cd  0.52524313  0.04707023  0.98321688     1.59600
O796        O  0.58716214  0.99905547  0.01048411    -0.79100
O797        O  0.48698235  0.48073996  0.97233363    -1.89600
Cd798      Cd  0.92003225  0.44894647  0.98516698     1.59900
O799        O  0.58718403  0.06270886  0.01322057    -0.79000
O800        O  0.88215838  0.42939607  0.92463070    -0.77700
C801        C  0.55600781  0.06885058  0.88747728     0.84800
C802        C  0.50984352  0.42239752  0.88614963     0.84500
O803        O  0.93964296  0.48926918  0.88959394    -0.76600
C804        C  0.92204690  0.36281959  0.02042419     0.85300
O805        O  0.54524330  0.02850425  0.88387920    -0.76700
C806        C  0.60841993  0.04243566  0.01704401     0.85400
C807        C  0.93742606  0.04698141  0.01263633     0.85800
O808        O  0.98166573  0.06625968  0.00827478    -0.79200
O809        O  0.52466096  0.97487688  0.71205100    -0.76700
C810        C  0.92582501  0.35834090  0.71104089     0.84400
O811        O  0.54000377  0.39226327  0.83615103    -0.77800
O812        O  0.47948383  0.29489975  0.71574528    -0.79300
O813        O  0.58236294  0.42937682  0.61524045    -0.79100
O814        O  0.59854148  0.00310781  0.69269548    -0.77700
Zn815      Zn  0.50932041  0.41970376  0.74615966     1.55700
O816        O  0.52248101  0.35676433  0.61928691    -0.79100
Cd817      Cd  0.59243472  0.44421376  0.68243723     1.59700
Cd818      Cd  0.56600122  0.38568579  0.77604471     1.59600
O819        O  0.65140371  0.45490255  0.70716337    -0.79100
O820        O  0.54374089  0.40014105  0.72211811    -1.89600
Cd821      Cd  0.49813076  0.35118350  0.68230642     1.59900
O822        O  0.63676473  0.44276710  0.77947552    -0.79000
O823        O  0.94115218  0.35345380  0.67504672    -0.77700
C824        C  0.52408903  0.41655209  0.84224979     0.84800
C825        C  0.56583571  0.00796558  0.70138037     0.84500
O826        O  0.94767660  0.36499689  0.74654106    -0.76600
C827        C  0.55298536  0.39139558  0.59689567     0.85300
O828        O  0.51797763  0.43559964  0.80991236    -0.76700
C829        C  0.66257748  0.46805308  0.74729634     0.85400
C830        C  0.49420703  0.28490028  0.74939638     0.85800
O831        O  0.53068667  0.31425371  0.77193664    -0.79200
O832        O  0.99172162  0.09567347  0.75394211    -0.76700
C833        C  0.57743065  0.05349908  0.70476183     0.84400
O834        O  0.58698550  0.13886774  0.84969020    -0.77800
O835        O  0.70268717  0.19613946  0.75405303    -0.79300
O836        O  0.59113455  0.18134013  0.63212647    -0.79100
O837        O  0.99743580  0.10550452  0.68182502    -0.77700
Zn838      Zn  0.54831822  0.09769726  0.75364186     1.55700
O839        O  0.65025974  0.17387616  0.64507101    -0.79100
Cd840      Cd  0.55918219  0.16523908  0.69411535     1.59700
Cd841      Cd  0.60425741  0.18337033  0.79723340     1.59600
O842        O  0.54345124  0.20541503  0.72757677    -0.79100
O843        O  0.59466405  0.15577943  0.73859289    -1.89600
Cd844      Cd  0.64450561  0.15451637  0.71238134     1.59900
O845        O  0.55140631  0.19536810  0.79979787    -0.79000
O846        O  0.61981137  0.08643902  0.71129777    -0.77700
C847        C  0.56924018  0.09639064  0.84734655     0.84800
C848        C  0.97423079  0.08301496  0.71561427     0.84500
O849        O  0.54418834  0.05847664  0.70692473    -0.76600
C850        C  0.62580865  0.18088585  0.61857312     0.85300
O851        O  0.55731906  0.07567831  0.81039301    -0.76700
C852        C  0.52879326  0.19827525  0.76789078     0.85400
C853        C  0.70930551  0.22448582  0.78472888     0.85800
O854        O  0.67621809  0.22681049  0.80076094    -0.79200
O855        O  0.91275731  0.41282511  0.72384719    -0.76700
C856        C  0.93312922  0.03775090  0.71148182     0.84400
O857        O  0.83133736  0.43236220  0.84428959    -0.77800
O858        O  0.79749691  0.48829876  0.70134322    -0.79300
O859        O  0.80892395  0.37206659  0.63013084    -0.79100
O860        O  0.85111417  0.34391444  0.70512890    -0.77700
Zn861      Zn  0.88976016  0.44569894  0.75010034     1.55700
O862        O  0.83524753  0.44465678  0.61715547    -0.79100
Cd863      Cd  0.80652432  0.36371678  0.69740574     1.59700
Cd864      Cd  0.79459174  0.41771393  0.78365480     1.59600
O865        O  0.74228192  0.31838379  0.72485976    -0.79100
O866        O  0.83071374  0.42278152  0.72878717    -1.89600
Cd867      Cd  0.83860156  0.46715845  0.68226223     1.59900
O868        O  0.73890935  0.34907864  0.78658155    -0.79000
O869        O  0.90228989  0.02717722  0.68251530    -0.77700
C870        C  0.87295486  0.44317458  0.84819696     0.84800
C871        C  0.89445934  0.37198270  0.71164496     0.84500
O872        O  0.93019707  0.00897364  0.73819387    -0.76600
C873        C  0.82401406  0.40558469  0.60368228     0.85300
O874        O  0.89665990  0.44669886  0.81458886    -0.76700
C875        C  0.74455158  0.32052601  0.76697864     0.85400
C876        C  0.78401236  0.49137180  0.73990984     0.85800
O877        O  0.78085859  0.46726781  0.77325781    -0.79200
N878        N  0.65900331  0.07136998  0.02324398    -0.01700
C879        C  0.68162140  0.09921796  0.98741942     0.00900
C880        C  0.69514990  0.14335969  0.99649843    -0.21900
C881        C  0.69226343  0.14591884  0.04123987    -0.22200
C882        C  0.67396952  0.10240192  0.05686878     0.00800
H883        H  0.71540787  0.17262125  0.97494779     0.14600
H884        H  0.70742907  0.17699082  0.06047355     0.14700
N885        N  0.89277146  0.31468022  0.03463354    -0.01700
C886        C  0.86254567  0.28175555  0.00421218     0.00900
C887        C  0.81687807  0.26185928  0.01781390    -0.21900
C888        C  0.81787255  0.27626982  0.05983212    -0.22200
C889        C  0.86411257  0.30580454  0.07036028     0.00800
H890        H  0.78628865  0.23334044  0.00211013     0.14600
H891        H  0.78842576  0.26224272  0.08218989     0.14700
N892        N  0.92088528  0.07703929  0.01931255    -0.01700
C893        C  0.92241981  0.10163335  0.98279940     0.00900
C894        C  0.95936753  0.14689276  0.98649298    -0.21900
C895        C  0.97324837  0.15348346  0.02945309    -0.22200
C896        C  0.94681414  0.11132521  0.04931283     0.00800
H897        H  0.96734780  0.17432223  0.96405466     0.14600
H898        H  0.99672268  0.18609953  0.04542044     0.14700
O899        O  0.86380186  0.11849520  0.98141721    -0.76700
C900        C  0.86969645  0.24999033  0.97691858     0.84400
O901        O  0.71695961  0.10702399  0.91850288    -0.77800
O902        O  0.83865061  0.23787995  0.84443566    -0.79300
O903        O  0.91115187  0.15819491  0.83341084    -0.79100
O904        O  0.87512947  0.08996593  0.92040381    -0.77700
Zn905      Zn  0.82291521  0.14319710  0.96095522     1.55700
O906        O  0.93187064  0.22936491  0.84677710    -0.79100
Cd907      Cd  0.85148604  0.11442445  0.87145467     1.59700
Cd908      Cd  0.76499958  0.12873830  0.86731552     1.59600
O909        O  0.80151962  0.06154933  0.83000233    -0.79100
O910        O  0.82766541  0.15077772  0.89636146    -1.89600
Cd911      Cd  0.87385806  0.21819621  0.88344663     1.59900
O912        O  0.74489443  0.07355222  0.82396754    -0.79000
O913        O  0.88991509  0.26237053  0.93910587    -0.77700
C914        C  0.71711463  0.09919974  0.95988846     0.84800
C915        C  0.88178535  0.09934523  0.96176322     0.84500
O916        O  0.84603716  0.20753362  0.98796953    -0.76600
C917        C  0.93907772  0.20137452  0.82766687     0.85300
O918        O  0.75259859  0.10363513  0.97908091    -0.76700
C919        C  0.76280315  0.05139343  0.81323626     0.85400
C920        C  0.79808090  0.22411190  0.82992413     0.85800
O921        O  0.76385217  0.18244811  0.83472190    -0.79200
N922        N  0.74151637  0.01722213  0.77813745    -0.01700
C923        C  0.77053869  0.52354020  0.74562784     0.00900
C924        C  0.76522305  0.54387638  0.70910324    -0.21900
C925        C  0.72436133  0.54025854  0.71645477    -0.22200
C926        C  0.70603978  0.51409975  0.75490836     0.00800
H927        H  0.78156487  0.54956996  0.67689331     0.14600
H928        H  0.70429922  0.54202147  0.68991327     0.14700
N929        N  0.97570036  0.21824693  0.79420999    -0.01700
C930        C  0.48179581  0.18871888  0.77598557     0.00900
C931        C  0.45265351  0.17128743  0.73902513    -0.21900
C932        C  0.44529478  0.20400470  0.72778455    -0.22200
C933        C  0.46740618  0.23663498  0.76072333     0.00800
H934        H  0.45086131  0.14757954  0.71505048     0.14600
H935        H  0.43598662  0.20858840  0.69484061     0.14700
N936        N  0.75607595  0.26060262  0.79605734    -0.01700
C937        C  0.79386063  0.26097739  0.81064488     0.00900
C938        C  0.83214050  0.30605387  0.81213413    -0.21900
C939        C  0.81769025  0.33318810  0.79881445    -0.22200
C940        C  0.77120199  0.30482174  0.78941567     0.00800
H941        H  0.86734055  0.31832570  0.82211588     0.14600
H942        H  0.83928766  0.36927662  0.79340134     0.14700
O943        O  0.63799731  0.87899785  0.48117422    -0.76700
C944        C  0.63177832  0.74668708  0.47738992     0.84400
O945        O  0.78313876  0.88676345  0.41800881    -0.77800
O946        O  0.65989813  0.75689038  0.34321856    -0.79300
O947        O  0.58917105  0.83907057  0.33465905    -0.79100
O948        O  0.62752105  0.90819618  0.42029040    -0.77700
Zn949      Zn  0.67848604  0.85350946  0.46086396     1.55700
O950        O  0.56727145  0.76749275  0.34798207    -0.79100
Cd951      Cd  0.64952620  0.88210057  0.37175244     1.59700
Cd952      Cd  0.73497579  0.86656292  0.36676944     1.59600
O953        O  0.69945695  0.93476775  0.33049944    -0.79100
O954        O  0.67265794  0.84497985  0.39627272    -1.89600
Cd955      Cd  0.62572050  0.77740690  0.38354231     1.59900
O956        O  0.75626557  0.92307554  0.32448116    -0.79000
O957        O  0.61094337  0.73384757  0.43980678    -0.77700
C958        C  0.78411057  0.89595762  0.45923959     0.84800
C959        C  0.62058177  0.89871294  0.46153736     0.84500
O960        O  0.65539651  0.78925865  0.48812385    -0.76600
C961        C  0.56051224  0.79597932  0.32920434     0.85300
O962        O  0.74931361  0.89287827  0.47855584    -0.76700
C963        C  0.73848614  0.94546326  0.31413907     0.85400
C964        C  0.70041693  0.77091378  0.32811791     0.85800
O965        O  0.73458437  0.81262302  0.33282899    -0.79200
N966        N  0.74317491  0.73581658  0.29255833    -0.01700
C967        C  0.70520349  0.73445595  0.30852191     0.00900
C968        C  0.66806706  0.68895786  0.31183647    -0.21900
C969        C  0.68345232  0.66255937  0.29848386    -0.22200
C970        C  0.72930663  0.69183097  0.28711932     0.00800
H971        H  0.63316353  0.67591648  0.32348149     0.14600
H972        H  0.66280005  0.62621861  0.29474155     0.14700
N973        N  0.76027547  0.98069824  0.27999950    -0.01700
C974        C  0.73280315  0.47618744  0.24812486     0.00900
C975        C  0.74057533  0.45731319  0.21185741    -0.21900
C976        C  0.78229797  0.46301386  0.22042054    -0.22200
C977        C  0.79847047  0.48881886  0.25926724     0.00800
H978        H  0.72527754  0.45166005  0.17912539     0.14600
H979        H  0.80394640  0.46306165  0.19441628     0.14700
N980        N  0.52366443  0.77975247  0.29612603    -0.01700
C981        C  0.02004422  0.81109823  0.27622753     0.03500
C982        C  0.04852108  0.82857252  0.23880201    -0.21900
C983        C  0.05635518  0.79623971  0.22714789    -0.22200
C984        C  0.03550281  0.76397756  0.26043625     0.00800
H985        H  0.04921927  0.85160327  0.21476929     0.14600
H986        H  0.06489724  0.79143470  0.19391555     0.14700
N987        N  0.84328569  0.92531011  0.52227616    -0.01700
C988        C  0.82048869  0.89697022  0.48663516     0.00900
C989        C  0.80787276  0.85318170  0.49604110    -0.21900
C990        C  0.81102145  0.85112911  0.54084414    -0.22200
C991        C  0.82862097  0.89463047  0.55619540     0.00800
H992        H  0.78788231  0.82362818  0.47474019     0.14600
H993        H  0.79634618  0.82028204  0.56029700     0.14700
N994        N  0.58140453  0.92177465  0.51828252    -0.01700
C995        C  0.57994376  0.89672571  0.48215784     0.00900
C996        C  0.54319581  0.85144980  0.48623647    -0.21900
C997        C  0.52948510  0.84535098  0.52918085    -0.22200
C998        C  0.55550411  0.88781345  0.54852589     0.00800
H999        H  0.53538754  0.82377469  0.46417787     0.14600
H1000       H  0.50628603  0.81290481  0.54549287     0.14700
O1001       O  0.55267995  0.63340789  0.25031246    -0.76700
C1002       C  0.97575744  0.58154953  0.34353297     0.84400
O1003       O  0.90045893  0.99538475  0.19389456    -0.77800
O1004       O  0.86531970  0.56133483  0.28465615    -0.79300
O1005       O  0.02164540  0.70478329  0.21539758    -0.79100
O1006       O  0.56085363  0.64712788  0.17905717    -0.77700
Zn1007     Zn  0.98863404  0.57845319  0.24782180     1.55700
O1008       O  0.97302454  0.68707376  0.27366519    -0.79100
Cd1009     Cd  0.00188679  0.64710854  0.18349193     1.59700
Cd1010     Cd  0.90560974  0.55486610  0.18502383     1.59600
O1011       O  0.97849932  0.63998733  0.11954747    -0.79100
O1012       O  0.95568206  0.59946354  0.22378368    -1.89600
Cd1013     Cd  0.93645891  0.61605354  0.27895985     1.59900
O1014       O  0.91564962  0.56874085  0.11689530    -0.79000
O1015       O  0.96356640  0.60900360  0.33820763    -0.77700
C1016       C  0.93317069  0.99026769  0.20164320     0.84800
C1017       C  0.57544565  0.64132561  0.21510659     0.84500
O1018       O  0.97774509  0.56011224  0.31084686    -0.76600
C1019       C  0.00843162  0.71567134  0.24965164     0.85300
O1020       O  0.97457689  0.02335506  0.21154967    -0.76700
C1021       C  0.94692491  0.60547628  0.09763689     0.85400
C1022       C  0.83992665  0.53622203  0.25225750     0.85800
O1023       O  0.85042988  0.55074349  0.21243464    -0.79200
O1024       O  0.50917177  0.90431805  0.25501527    -0.76700
C1025       C  0.92191735  0.94471213  0.20466801     0.84400
O1026       O  0.91189095  0.85686831  0.34915372    -0.77800
O1027       O  0.79688812  0.80047796  0.25053647    -0.79300
O1028       O  0.91206694  0.81710391  0.13130373    -0.79100
O1029       O  0.50574747  0.89130980  0.18343719    -0.77700
Zn1030     Zn  0.95224182  0.90043851  0.25312045     1.55700
O1031       O  0.85326932  0.82537699  0.14323862    -0.79100
Cd1032     Cd  0.94296729  0.83258934  0.19372549     1.59700
Cd1033     Cd  0.89542388  0.81343368  0.29581227     1.59600
O1034       O  0.95700059  0.79135337  0.22785778    -0.79100
O1035       O  0.90660247  0.84227544  0.23744850    -1.89600
Cd1036     Cd  0.85657554  0.84335771  0.21060296     1.59900
O1037       O  0.94893897  0.80215013  0.29967924    -0.79000
O1038       O  0.87961125  0.91119790  0.21019259    -0.77700
C1039       C  0.93051656  0.89952480  0.34737737     0.84800
C1040       C  0.52751999  0.91562918  0.21693972     0.84500
O1041       O  0.95556111  0.94033215  0.20746205    -0.76600
C1042       C  0.87799845  0.81830223  0.11720161     0.85300
O1043       O  0.94290005  0.92070777  0.31070982    -0.76700
C1044       C  0.97210862  0.79965143  0.26804331     0.85400
C1045       C  0.79001569  0.77232028  0.28149518     0.85800
O1046       O  0.82314414  0.77039001  0.29811608    -0.79200
O1047       O  0.58991144  0.58792394  0.22931185    -0.76700
C1048       C  0.56840392  0.96088373  0.21220484     0.84400
O1049       O  0.67225951  0.56876706  0.34523806    -0.77800
O1050       O  0.70592464  0.51092481  0.20272146    -0.79300
O1051       O  0.69174559  0.62594931  0.13041979    -0.79100
O1052       O  0.64998980  0.65533997  0.20534347    -0.77700
Zn1053     Zn  0.61138524  0.55179516  0.25014678     1.55700
O1054       O  0.66836000  0.55417605  0.11727819    -0.79100
Cd1055     Cd  0.69434893  0.63482602  0.19735400     1.59700
Cd1056     Cd  0.70750835  0.58155396  0.28401348     1.59600
O1057       O  0.75959268  0.67921578  0.22315659    -0.79100
O1058       O  0.67077498  0.57571996  0.22891871    -1.89600
Cd1059     Cd  0.66460992  0.53170420  0.18256051     1.59900
O1060       O  0.76390631  0.64959680  0.28502609    -0.79000
O1061       O  0.59940682  0.97088447  0.18362123    -0.77700
C1062       C  0.62933913  0.55372451  0.34871954     0.84800
C1063       C  0.60729766  0.62806892  0.21541878     0.84500
O1064       O  0.57110737  0.99013196  0.23815321    -0.76600
C1065       C  0.67823608  0.59280002  0.10386956     0.85300
O1066       O  0.60482231  0.54707070  0.31475827    -0.76700
C1067       C  0.75711635  0.67719672  0.26520993     0.85400
C1068       C  0.71862175  0.50775884  0.24165721     0.85800
O1069       O  0.72081763  0.53163516  0.27480929    -0.79200
O1070       O  0.02616697  0.57287996  0.38618496    -0.76700
C1071       C  0.60437534  0.54186296  0.39098498     0.84400
O1072       O  0.95353544  0.91367523  0.42301931    -0.77800
O1073       O  0.59391681  0.99597215  0.50820111    -0.79300
O1074       O  0.53706861  0.61518853  0.51350006    -0.79100
O1075       O  0.96685019  0.56556144  0.42184384    -0.77700
Zn1076     Zn  0.51622412  0.01949258  0.40997157     1.55700
O1077       O  0.60061088  0.61212514  0.51580638    -0.79100
Cd1078     Cd  0.98444895  0.55016259  0.48356786     1.59700
Cd1079     Cd  0.97758280  0.95009546  0.48251023     1.59600
O1080       O  0.91519362  0.99775227  0.50936022    -0.79100
O1081       O  0.51601654  0.01939159  0.47157766    -1.89600
Cd1082     Cd  0.58267774  0.54774489  0.48587113     1.59900
O1083       O  0.91548267  0.93430907  0.51274138    -0.79000
O1084       O  0.62037141  0.56729655  0.42532695    -0.77700
C1085       C  0.94450907  0.92695877  0.38768097     0.84800
C1086       C  0.99090009  0.57494054  0.38653879     0.84500
O1087       O  0.56248066  0.50788670  0.38992978    -0.76600
C1088       C  0.58100628  0.63425710  0.52130992     0.85300
O1089       O  0.95522418  0.96729617  0.38429088    -0.76700
C1090       C  0.89398271  0.95439041  0.51607986     0.85400
C1091       C  0.56512428  0.95202983  0.51129727     0.85800
O1092       O  0.52100397  0.93300306  0.50634610    -0.79200
N1093       N  0.61024041  0.68247363  0.53533303    -0.01700
C1094       C  0.63981949  0.71545101  0.50467461     0.00900
C1095       C  0.68569513  0.73589928  0.51792648    -0.21900
C1096       C  0.68535386  0.72161783  0.55987730    -0.22200
C1097       C  0.63927776  0.69170279  0.57080397     0.00800
H1098       H  0.71593111  0.76463152  0.50206110     0.14600
H1099       H  0.71504465  0.73609315  0.58198494     0.14700
O1100       O  0.47412007  0.92320940  0.88786056    -0.76700
C1101       C  0.89554624  0.95460069  0.89097430     0.84400
O1102       O  0.54673341  0.58157718  0.92314482    -0.77800
O1103       O  0.90984698  0.50200375  0.00868229    -0.79300
O1104       O  0.96559048  0.88326474  0.01175384    -0.79100
O1105       O  0.53608159  0.93387626  0.92103920    -0.77700
Zn1106     Zn  0.48614112  0.98022205  0.91097635     1.55700
O1107       O  0.90188812  0.88603538  0.01505937    -0.79100
Cd1108     Cd  0.51881752  0.94838630  0.98343782     1.59700
Cd1109     Cd  0.52543767  0.54685499  0.98340383     1.59600
O1110       O  0.58739534  0.49849234  0.01023089    -0.79100
O1111       O  0.48707490  0.98084520  0.97258713    -1.89600
Cd1112     Cd  0.91880847  0.94983718  0.98538101     1.59900
O1113       O  0.58828841  0.56261445  0.01193551    -0.79000
O1114       O  0.87998860  0.92936699  0.92539816    -0.77700
C1115       C  0.55568950  0.56833774  0.88769738     0.84800
C1116       C  0.51058398  0.92318982  0.88658821     0.84500
O1117       O  0.93735100  0.98872107  0.88966867    -0.76600
C1118       C  0.92171341  0.86409671  0.02010035     0.85300
O1119       O  0.54666881  0.52857667  0.88476824    -0.76700
C1120       C  0.60919880  0.54205015  0.01623251     0.85400
C1121       C  0.93838836  0.54593042  0.01237367     0.85800
O1122       O  0.98268202  0.56536193  0.00778795    -0.79200
O1123       O  0.52357763  0.47419357  0.71107907    -0.76700
C1124       C  0.92710519  0.85953020  0.71310211     0.84400
O1125       O  0.54050009  0.89280904  0.83669787    -0.77800
O1126       O  0.48104466  0.79598415  0.71483439    -0.79300
O1127       O  0.58432490  0.93086629  0.61543555    -0.79100
O1128       O  0.59726796  0.50225910  0.69137679    -0.77700
Zn1129     Zn  0.51076522  0.92070533  0.74725336     1.55700
O1130       O  0.52245540  0.85920661  0.61881549    -0.79100
Cd1131     Cd  0.59356477  0.94500703  0.68288840     1.59700
Cd1132     Cd  0.56659997  0.88624901  0.77662230     1.59600
O1133       O  0.65146053  0.95350161  0.70757444    -0.79100
O1134       O  0.54476021  0.90102118  0.72254902    -1.89600
Cd1135     Cd  0.49881701  0.85261427  0.68255458     1.59900
O1136       O  0.63748547  0.94254777  0.78000031    -0.79000
O1137       O  0.94227443  0.85498148  0.67677479    -0.77700
C1138       C  0.52530960  0.91771061  0.84285018     0.84800
C1139       C  0.56466602  0.50720680  0.70011017     0.84500
O1140       O  0.94971888  0.86714135  0.74830979    -0.76600
C1141       C  0.55405106  0.89345391  0.59670717     0.85300
O1142       O  0.52026120  0.93759495  0.81063355    -0.76700
C1143       C  0.66295399  0.96730798  0.74745267     0.85400
C1144       C  0.49542073  0.78581720  0.74864530     0.85800
O1145       O  0.53122529  0.81506319  0.77195472    -0.79200
O1146       O  0.99270553  0.59516369  0.75430006    -0.76700
C1147       C  0.57639770  0.55280405  0.70350724     0.84400
O1148       O  0.58656521  0.63802634  0.84959970    -0.77800
O1149       O  0.70267279  0.69571910  0.75267158    -0.79300
O1150       O  0.59136841  0.68268077  0.63221811    -0.79100
O1151       O  0.99689273  0.60553965  0.68217232    -0.77700
Zn1152     Zn  0.54773231  0.59699760  0.75342979     1.55700
O1153       O  0.64937775  0.67340641  0.64420957    -0.79100
Cd1154     Cd  0.56007727  0.66691337  0.69451603     1.59700
Cd1155     Cd  0.60430677  0.68259141  0.79728300     1.59600
O1156       O  0.54720129  0.70878907  0.72884753    -0.79100
O1157       O  0.59433946  0.65512053  0.73844090    -1.89600
Cd1158     Cd  0.64399066  0.65396836  0.71141724     1.59900
O1159       O  0.55260337  0.69595330  0.80071596    -0.79000
O1160       O  0.61890328  0.58573263  0.70960936    -0.77700
C1161       C  0.56836795  0.59547839  0.84737647     0.84800
C1162       C  0.97435573  0.58311677  0.71624606     0.84500
O1163       O  0.54318831  0.55777988  0.70641308    -0.76600
C1164       C  0.62518155  0.68107234  0.61810249     0.85300
O1165       O  0.55602762  0.57458918  0.81049475    -0.76700
C1166       C  0.53110544  0.70015184  0.76863769     0.85400
C1167       C  0.70923703  0.72369031  0.78377164     0.85800
O1168       O  0.67607815  0.72547100  0.80044926    -0.79200
O1169       O  0.91222717  0.91266581  0.72616653    -0.76700
C1170       C  0.93313186  0.53820695  0.71228640     0.84400
O1171       O  0.82837727  0.92995321  0.84471230    -0.77800
O1172       O  0.79862680  0.98843674  0.70108482    -0.79300
O1173       O  0.81033577  0.87024053  0.63025217    -0.79100
O1174       O  0.85152703  0.84321253  0.70732148    -0.77700
Zn1175     Zn  0.88878050  0.94563935  0.75078272     1.55700
O1176       O  0.83463851  0.94217468  0.61647768    -0.79100
Cd1177     Cd  0.80656422  0.86235019  0.69771691     1.59700
Cd1178     Cd  0.79306440  0.91617279  0.78321224     1.59600
O1179       O  0.74145270  0.81708436  0.72378583    -0.79100
O1180       O  0.82991764  0.92165399  0.72856251    -1.89600
Cd1181     Cd  0.83863432  0.96594611  0.68138293     1.59900
O1182       O  0.73680663  0.84773291  0.78488580    -0.79000
O1183       O  0.90154879  0.52845677  0.68452564    -0.77700
C1184       C  0.87052067  0.94237856  0.84872690     0.84800
C1185       C  0.89472932  0.87192072  0.71412572     0.84500
O1186       O  0.93095910  0.50890260  0.73768322    -0.76600
C1187       C  0.82460187  0.90334614  0.60343337     0.85300
O1188       O  0.89474372  0.94715819  0.81514274    -0.76700
C1189       C  0.74303088  0.81929465  0.76589837     0.85400
C1190       C  0.78459641  0.99115460  0.73955146     0.85800
O1191       O  0.78049154  0.96641378  0.77268599    -0.79200
N1192       N  0.65989342  0.57070224  0.02264637    -0.01700
C1193       C  0.68289298  0.59901557  0.98713677     0.00900
C1194       C  0.69635504  0.64304555  0.99660730    -0.21900
C1195       C  0.69356848  0.64520294  0.04134745    -0.22200
C1196       C  0.67502846  0.60150350  0.05656482     0.00800
H1197       H  0.71667685  0.67250801  0.97530431     0.14600
H1198       H  0.70885626  0.67612811  0.06084508     0.14700
N1199       N  0.89276806  0.81608501  0.03463324    -0.01700
C1200       C  0.86296296  0.78259749  0.00446608     0.00900
C1201       C  0.81717567  0.76213177  0.01788955    -0.21900
C1202       C  0.81772681  0.77724525  0.05946197    -0.22200
C1203       C  0.86385495  0.80740152  0.07003823     0.00800
H1204       H  0.78692131  0.73303848  0.00243700     0.14600
H1205       H  0.78818458  0.76306147  0.08171814     0.14700
N1206       N  0.92150588  0.57578902  0.01885816    -0.01700
C1207       C  0.92378384  0.60054333  0.98209807     0.00900
C1208       C  0.96194381  0.64526853  0.98544668    -0.21900
C1209       C  0.97529788  0.65188045  0.02862226    -0.22200
C1210       C  0.94728118  0.61007638  0.04890102     0.00800
H1211       H  0.97106469  0.67278337  0.96265629     0.14600
H1212       H  0.99932359  0.68447236  0.04438971     0.14700
O1213       O  0.86637289  0.61942198  0.98134392    -0.76700
C1214       C  0.87100773  0.75143716  0.97724028     0.84400
O1215       O  0.71874528  0.60759372  0.91851125    -0.77800
O1216       O  0.83950773  0.73914290  0.84397827    -0.79300
O1217       O  0.91262657  0.66050683  0.83407037    -0.79100
O1218       O  0.87695110  0.59107392  0.91979332    -0.77700
Zn1219     Zn  0.82549647  0.64473854  0.96126492     1.55700
O1220       O  0.93372707  0.73176022  0.84785915    -0.79100
Cd1221     Cd  0.85287609  0.61581104  0.87132964     1.59700
Cd1222     Cd  0.76666710  0.63004164  0.86742216     1.59600
O1223       O  0.80249717  0.56291525  0.82946574    -0.79100
O1224       O  0.82943657  0.65232527  0.89655339    -1.89600
Cd1225     Cd  0.87496084  0.71989389  0.88347500     1.59900
O1226       O  0.74576072  0.57476658  0.82422412    -0.79000
O1227       O  0.89013404  0.76384328  0.93897127    -0.77700
C1228       C  0.71900984  0.59980110  0.95986910     0.84800
C1229       C  0.88382075  0.59994172  0.96125967     0.84500
O1230       O  0.84864114  0.70912447  0.98871385    -0.76600
C1231       C  0.94078568  0.70372008  0.82863906     0.85300
O1232       O  0.75489951  0.60513699  0.97920488    -0.76700
C1233       C  0.76342498  0.55249722  0.81324204     0.85400
C1234       C  0.79869872  0.72497722  0.82980495     0.85800
O1235       O  0.76475191  0.68326423  0.83489370    -0.79200
N1236       N  0.74126865  0.51779999  0.77857740    -0.01700
C1237       C  0.77127042  0.02345058  0.74542926     0.00900
C1238       C  0.76584535  0.04357152  0.70879295    -0.21900
C1239       C  0.72453047  0.03915565  0.71570573    -0.22200
C1240       C  0.70633989  0.01332705  0.75434949     0.00800
H1241       H  0.78241501  0.04940763  0.67668399     0.14600
H1242       H  0.70437362  0.04044479  0.68895601     0.14700
N1243       N  0.97720170  0.72044218  0.79500239    -0.01700
C1244       C  0.48373536  0.68995794  0.77565642     0.00900
C1245       C  0.45559833  0.67264194  0.73803167    -0.21900
C1246       C  0.44818297  0.70516447  0.72616368    -0.22200
C1247       C  0.46905411  0.73751356  0.75942675     0.00800
H1248       H  0.45466692  0.64929808  0.71422148     0.14600
H1249       H  0.43966311  0.70986365  0.69290202     0.14700
N1250       N  0.75586080  0.76022500  0.79491450    -0.01700
C1251       C  0.79369379  0.76147467  0.81091344     0.00900
C1252       C  0.83097071  0.80690912  0.81399847    -0.21900
C1253       C  0.81581569  0.83328772  0.80017628    -0.22200
C1254       C  0.76995817  0.80424899  0.78897748     0.00800
H1255       H  0.86594056  0.81987408  0.82535523     0.14600
H1256       H  0.83687618  0.86972802  0.79547947     0.14700
loop_ 
_geom_bond_atom_site_label_1 
_geom_bond_atom_site_label_2 
_geom_bond_distance 
_geom_bond_site_symmetry_2 
_ccdc_geom_bond_type 
O1           C17   1.293       .  A
O1           Zn7   2.131       .  S
C2           O18   1.288       .  A
C2           O15   1.279       .  A
C2          C152   1.520       .  S
O3           C16   1.276       .  A
O3          Cd10   2.065       .  S
O4           C22   1.280       .  A
O4          Cd13   2.081       .  S
O5           C19   1.282       .  A
O5           Cd9   2.088       .  S
O6           C17   1.273       .  A
O6           Cd9   2.091       .  S
Zn7          O18   2.105       .  S
Zn7          O20   2.088       .  S
Zn7          O12   1.952       .  S
O8           C19   1.287       .  A
O8          Cd13   2.130       .  S
Cd9          O11   2.108       .  S
Cd9          O12   2.021       .  S
Cd10         O14   2.110       .  S
Cd10         O23   2.155       .  S
Cd10         O12   2.042       .  S
O11          C21   1.282       .  A
O12         Cd13   2.032       .  S
Cd13         O15   2.146       .  S
O14          C21   1.284       .  A
C16          O20   1.286       .  A
C16          C46   1.481       .  S
C17          C53   1.504       .  S
C19          N38   1.459       .  S
C21          N31   1.458       .  S
C22          O23   1.281       .  A
C22          C25   1.507       .  S
N24         C103   1.431       .  S
N24          C28   1.357       .  A
N24          C25   1.373       .  A
C25          C26   1.390       .  A
C26          C27   1.370       .  A
C26          H29   1.083       .  S
C27          C28   1.364       .  A
C27          H30   1.067       .  S
C28         C125   1.481       .  S
N31         C349   1.355       .  A
N31         C346   1.350       .  A
C32         C126   1.469   1_565  S
C32         N345   1.351       .  A
C32          C33   1.382       .  A
C33          C34   1.368       .  A
C33          H36   1.083       .  S
C34          C35   1.393       .  A
C34          H37   1.083       .  S
C35          C80   1.491   1_565  S
C35         N345   1.353       .  A
N38         C670   1.346       .  A
N38         C667   1.360       .  A
C39         C102   1.490       .  S
C39         N666   1.361       .  A
C39          C40   1.392       .  A
C40          C41   1.361       .  A
C40          H43   1.080       .  S
C41          C42   1.380       .  A
C41          H44   1.083       .  S
C42          C77   1.451       .  S
C42         N666   1.345       .  A
N45         C148   1.464       .  S
N45          C49   1.363       .  A
N45          C46   1.373       .  A
C46          C47   1.384       .  A
C47          C48   1.355       .  A
C47          H50   1.083       .  S
C48          C49   1.380       .  A
C48          H51   1.083       .  S
C49         C245   1.472       .  S
N52         C149   1.480       .  S
N52          C56   1.367       .  A
N52          C53   1.386       .  A
C53          C54   1.385       .  A
C54          C55   1.351       .  A
C54          H57   1.084       .  S
C55          C56   1.376       .  A
C55          H58   1.083       .  S
C56         C199   1.466       .  S
O59          C75   1.256       .  A
O59        Zn693   1.969   1_455  S
C60          O76   1.267       .  A
C60          O73   1.269       .  A
C60         C144   1.464       .  S
O61          C74   1.268       .  A
O61        Cd382   2.008       .  S
O62          C80   1.279       .  A
O62         Cd71   2.122       .  S
O63          C77   1.271       .  A
O63         Cd67   1.994       .  S
O64          C75   1.262       .  A
O64        Cd695   2.055       .  S
Zn65         O76   1.966       .  S
Zn65        O687   1.964       .  S
Zn65        O392   2.001       .  S
Zn65         O70   1.823       .  S
O66          C77   1.288       .  A
O66         Cd71   2.091       .  S
Cd67         O69   2.038       .  S
Cd67        O692   2.047       .  S
Cd67         O70   1.961       .  S
Cd68         O72   2.083       .  S
Cd68         O81   2.004       .  S
Cd68        O375   2.004   1_545  S
Cd68         O70   1.942       .  S
O69          C79   1.273       .  A
O70         Cd71   1.991       .  S
Cd71         O73   2.094       .  S
O72          C79   1.273       .  A
C74          O78   1.278       .  A
C74          C83   1.435       .  S
C75         C121   1.425       .  S
O78        Zn379   1.992       .  S
C79         C268   1.469       .  S
C80          O81   1.273       .  A
O82          C98   1.262       .  A
O82        Zn716   1.941   1_455  S
C83          O99   1.265       .  A
C83          O96   1.278       .  A
O84          C97   1.267       .  A
O84         Cd91   2.064       .  S
O85         C103   1.285       .  A
O85         Cd94   2.115       .  S
O86         C100   1.277       .  A
O86         Cd90   2.075       .  S
O87          C98   1.263       .  A
O87        Cd718   2.056   1_455  S
Zn88         O99   1.934       .  S
Zn88        O101   1.973       .  S
Zn88        O710   1.938       .  S
Zn88         O93   1.820       .  S
O89         C100   1.284       .  A
O89         Cd94   2.106       .  S
Cd90         O92   2.058       .  S
Cd90        O715   2.055       .  S
Cd90         O93   1.980       .  S
Cd91         O95   2.097       .  S
Cd91        O104   2.058       .  S
Cd91         O93   1.957       .  S
O92         C102   1.285       .  A
O93         Cd94   1.926       .  S
Cd94         O96   2.059       .  S
O95         C102   1.278       .  A
C97         O101   1.267       .  A
C97         C143   1.455       .  S
C98         C106   1.431       .  S
C100        C261   1.478       .  S
C103        O104   1.286       .  A
O105        C121   1.264       .  A
O105       Zn111   1.913       .  S
C106        O122   1.257       .  A
C106        O119   1.262       .  A
O107        C120   1.274       .  A
O107       Cd114   2.118       .  S
O108        C126   1.280       .  A
O108       Cd117   2.046       .  S
O109        C123   1.273       .  A
O109       Cd113   2.038       .  S
O110        C121   1.270       .  A
O110       Cd113   2.059       .  S
Zn111       O124   1.938       .  S
Zn111       O436   1.897   1_545  S
Zn111       O116   1.841       .  S
O112        C123   1.277       .  A
O112       Cd117   2.102       .  S
Cd113       O115   2.053       .  S
Cd113       O116   2.009       .  S
Cd114       O118   2.095       .  S
Cd114       O127   2.086       .  S
Cd114       O116   2.028       .  S
O115        C125   1.269       .  A
O116       Cd117   2.014       .  S
Cd117       O433   2.055   1_545  S
O118        C125   1.276       .  A
O119       Cd431   2.048       .  S
C120        O124   1.262       .  A
C120        C129   1.459       .  S
O122       Zn425   1.896       .  S
C123        C254   1.476       .  S
C126        O127   1.282       .  A
O128        C144   1.265       .  A
O128      Zn1076   1.953       .  S
C129        O145   1.266       .  A
C129        O142   1.274       .  A
O130        C143   1.270       .  A
O130       Cd137   2.084       .  S
O131        C149   1.299       .  A
O131       Cd454   2.221       .  S
O132        C146   1.296       .  A
O132       Cd764   2.178   1_455  S
O133        C144   1.275       .  A
O133       Cd136   2.123       .  S
Zn134      O1070   1.948       .  S
Zn134       O459   1.955       .  S
Zn134       O775   1.959   1_455  S
Zn134       O139   1.855       .  S
O135        C146   1.302       .  A
O135       Cd140   2.178       .  S
Cd136       O760   2.177       .  S
Cd136       O452   2.185       .  S
Cd136      O1081   2.015       .  S
Cd137       O141   2.095       .  S
Cd137       O778   2.109       .  S
Cd137       O767   1.971       .  S
O138        C148   1.293       .  A
O138       Cd450   2.174       .  S
O139      Cd1078   2.018   1_455  S
O139       Cd765   1.976   1_455  S
O139       Cd454   2.009       .  S
Cd140       O142   2.115       .  S
Cd140       O445   2.210   1_545  S
Cd140       O453   2.008       .  S
O141        C148   1.290       .  A
C143        O147   1.262       .  A
O145       Zn448   1.955       .  S
C146        N151   1.475       .  S
O147       Zn762   1.961       .  S
C149        O150   1.289       .  A
O150       Cd765   2.114   1_455  S
N151        C155   1.375       .  A
N151        C152   1.385       .  A
C152        C153   1.385       .  A
C153        C154   1.358       .  A
C153        H156   1.080       .  S
C154        C155   1.373       .  A
C154        H157   1.083       .  S
C155        C222   1.484       .  S
O158        C174   1.264   1_655  A
O158       Zn164   1.942       .  S
C159        O175   1.264       .  A
C159        O172   1.275       .  A
C159        C242   1.464       .  S
O160        C173   1.271       .  A
O160       Cd167   2.088       .  S
O161        C179   1.298       .  A
O161       Cd484   2.216   1_544  S
O162        C176   1.296       .  A
O162       Cd794   2.178   1_554  S
O163        C174   1.274       .  A
O163       Cd166   2.116       .  S
Zn164       O803   1.953       .  S
Zn164       O491   1.965   1_655  S
Zn164       O169   1.857       .  S
O165        C176   1.303       .  A
O165       Cd170   2.185   1_554  S
Cd166       O790   2.180   1_456  S
Cd166       O482   2.182   1_556  S
Cd166       O169   2.013   1_455  S
Cd167       O171   2.101   1_556  S
Cd167       O808   2.107   1_456  S
Cd167       O483   1.971   1_445  S
O168        C178   1.294   1_565  A
O168       Cd480   2.181   1_554  S
O169       Cd481   1.965   1_655  S
O169       Cd798   2.006       .  S
Cd170       O172   2.127       .  S
Cd170       O475   2.214   1_556  S
Cd170       O797   2.007       .  S
O171        C178   1.290       .  A
C173        O177   1.263       .  A
C173        C219   1.458       .  S
C174        C196   1.460       .  S
O175       Zn792   1.952       .  S
C176        N257   1.475       .  S
O177       Zn478   1.962   1_445  S
C178        N250   1.467       .  S
C179        O180   1.289       .  A
C179        N264   1.480       .  S
O180       Cd795   2.111   1_554  S
O181        C197   1.278   1_565  A
O181       Zn501   1.996       .  S
C182        O198   1.254       .  A
C182        O195   1.261       .  A
C182        C243   1.420       .  S
O183        C196   1.268       .  A
O183       Cd190   2.086       .  S
O184        C202   1.271       .  A
O184       Cd193   1.993       .  S
O185        C199   1.271       .  A
O185       Cd189   2.077       .  S
O186        C197   1.266       .  A
O186       Cd503   1.995   1_545  S
Zn187       O200   1.966       .  S
Zn187       O495   2.004       .  S
Zn187       O826   1.962   1_455  S
Zn187       O192   1.826       .  S
O188        C199   1.272       .  A
O188       Cd193   2.030   1_455  S
Cd189       O191   2.005       .  S
Cd189       O500   1.996       .  S
Cd189       O192   1.941       .  S
Cd190       O194   2.132       .  S
Cd190       O203   2.107       .  S
Cd190       O192   1.986       .  S
O191        C201   1.273       .  A
O192       Cd193   1.962   1_455  S
Cd193       O823   2.043       .  S
O194        C201   1.280       .  A
O195       Cd821   2.051       .  S
C196        O200   1.267       .  A
C197        C205   1.431       .  S
O198       Zn815   1.965       .  S
C201        C298   1.494       .  S
C202        O203   1.290   1_655  A
C202        C305   1.456       .  S
O204        C220   1.263       .  A
O204       Zn838   1.942       .  S
C205        O221   1.262       .  A
C205        O218   1.278       .  A
O206        C219   1.269       .  A
O206       Cd213   2.076       .  S
O207        C225   1.285       .  A
O207       Cd216   2.109       .  S
O208        C222   1.277       .  A
O208       Cd212   2.080       .  S
O209        C220   1.264       .  A
O209       Cd840   2.054       .  S
Zn210       O221   1.925       .  S
Zn210       O223   1.972       .  S
Zn210       O832   1.942   1_455  S
Zn210       O215   1.819       .  S
O211        C222   1.285       .  A
O211       Cd216   2.111       .  S
Cd212       O214   2.049       .  S
Cd212       O837   2.054   1_455  S
Cd212       O215   1.973       .  S
Cd213       O217   2.107       .  S
Cd213       O226   2.078       .  S
Cd213       O215   1.958       .  S
O214        C224   1.285       .  A
O215       Cd216   1.925       .  S
Cd216       O218   2.052       .  S
O217        C224   1.281       .  A
C219        O223   1.266       .  A
C220        C228   1.431       .  S
C224        C302   1.489   1_455  S
C225        O226   1.289       .  A
C225        N308   1.432       .  S
O227        C243   1.265       .  A
O227       Zn233   1.916       .  S
C228        O244   1.257       .  A
C228        O241   1.262       .  A
O229        C242   1.273       .  A
O229       Cd236   2.119       .  S
O230        C248   1.279       .  A
O230       Cd239   2.036       .  S
O231        C245   1.272       .  A
O231       Cd235   2.031       .  S
O232        C243   1.268       .  A
O232       Cd235   2.043       .  S
Zn233       O246   1.952       .  S
Zn233       O558   1.901       .  S
Zn233       O238   1.843       .  S
O234        C245   1.276       .  A
O234       Cd239   2.094       .  S
Cd235       O237   2.048       .  S
Cd235       O238   2.005       .  S
Cd236       O240   2.091       .  S
Cd236       O249   2.084       .  S
Cd236       O238   2.022       .  S
O237        C247   1.269       .  A
O238       Cd239   2.012       .  S
Cd239       O555   2.042       .  S
O240        C247   1.276       .  A
O241       Cd553   2.047   1_545  S
C242        O246   1.264       .  A
O244       Zn547   1.901   1_545  S
C247        C312   1.483       .  S
C248        O249   1.283       .  A
C248        C295   1.465       .  S
N250        C254   1.365       .  A
N250        C251   1.373   1_554  A
C251        C286   1.485       .  S
C251        C252   1.384       .  A
C252        C253   1.357   1_556  A
C252        H255   1.083       .  S
C253        C254   1.380       .  A
C253        H256   1.083       .  S
N257        C261   1.374       .  A
N257        C258   1.384       .  A
C258        C272   1.516   1_554  S
C258        C259   1.385       .  A
C259        C260   1.356       .  A
C259        H262   1.080       .  S
C260        C261   1.372       .  A
C260        H263   1.083       .  S
N264        C268   1.367       .  A
N264        C265   1.385   1_554  A
C265        C287   1.505       .  S
C265        C266   1.385       .  A
C266        C267   1.353   1_556  A
C266        H269   1.084       .  S
C267        C268   1.376       .  A
C267        H270   1.083       .  S
O271        C287   1.293       .  A
O271       Zn277   2.139       .  S
C272        O288   1.288       .  A
C272        O285   1.278       .  A
O273        C286   1.276       .  A
O273       Cd280   2.071       .  S
O274        C292   1.280       .  A
O274       Cd283   2.079       .  S
O275        C289   1.282       .  A
O275       Cd279   2.087       .  S
O276        C287   1.274       .  A
O276       Cd279   2.090       .  S
Zn277       O288   2.101       .  S
Zn277       O290   2.096       .  S
Zn277       O282   1.956       .  S
O278        C289   1.285       .  A
O278       Cd283   2.125       .  S
Cd279       O281   2.102       .  S
Cd279       O282   2.019       .  S
Cd280       O284   2.114       .  S
Cd280       O293   2.158       .  S
Cd280       O282   2.043       .  S
O281        C291   1.281       .  A
O282       Cd283   2.032       .  S
Cd283       O285   2.135       .  S
O284        C291   1.285       .  A
C286        O290   1.287       .  A
C289        N301   1.459       .  S
C291        N294   1.457       .  S
C292        O293   1.281       .  A
C292        C309   1.509       .  S
N294        C612   1.353       .  A
N294        C609   1.351       .  A
C295        N608   1.350       .  A
C295        C296   1.382       .  A
C296        C297   1.368       .  A
C296        H299   1.083       .  S
C297        C298   1.394       .  A
C297        H300   1.083       .  S
C298        N608   1.355       .  A
N301        C933   1.346       .  A
N301        C930   1.359       .  A
C302        N929   1.360       .  A
C302        C303   1.392       .  A
C303        C304   1.362       .  A
C303        H306   1.081       .  S
C304        C305   1.382       .  A
C304        H307   1.083       .  S
C305        N929   1.346       .  A
N308        C312   1.358       .  A
N308        C309   1.374       .  A
C309        C310   1.391       .  A
C310        C311   1.370       .  A
C310        H313   1.083       .  S
C311        C312   1.366       .  A
C311        H314   1.080       .  S
O315        C331   1.293       .  A
O315       Zn321   2.131       .  S
C316        O332   1.289       .  A
C316        O329   1.279       .  A
C316        C466   1.521       .  S
O317        C330   1.279       .  A
O317       Cd324   2.085       .  S
O318        C336   1.280       .  A
O318       Cd327   2.083       .  S
O319        C333   1.282       .  A
O319       Cd323   2.095       .  S
O320        C331   1.273       .  A
O320       Cd323   2.093       .  S
Zn321       O332   2.101       .  S
Zn321       O334   2.091       .  S
Zn321       O326   1.956       .  S
O322        C333   1.287       .  A
O322       Cd327   2.133       .  S
Cd323       O325   2.095       .  S
Cd323       O326   2.022       .  S
Cd324       O328   2.125       .  S
Cd324       O337   2.162       .  S
Cd324       O326   2.045       .  S
O325        C335   1.280       .  A
O326       Cd327   2.036       .  S
Cd327       O329   2.147       .  S
O328        C335   1.286       .  A
C330        O334   1.286       .  A
C330        C360   1.487       .  S
C331        C367   1.505       .  S
C333        N352   1.460       .  S
C335        N345   1.457       .  S
C336        O337   1.282       .  A
C336        C339   1.508       .  S
N338        C417   1.430       .  S
N338        C342   1.356       .  A
N338        C339   1.371       .  A
C339        C340   1.391       .  A
C340        C341   1.372       .  A
C340        H343   1.083       .  S
C341        C342   1.366       .  A
C341        H344   1.069       .  S
C342        C439   1.480       .  S
C346        C440   1.467       .  S
C346        C347   1.382       .  A
C347        C348   1.368       .  A
C347        H350   1.083       .  S
C348        C349   1.393       .  A
C348        H351   1.083       .  S
C349        C394   1.492       .  S
N352        C984   1.346       .  A
N352        C981   1.361       .  A
C353        C416   1.488       .  S
C353        N980   1.360       .  A
C353        C354   1.392       .  A
C354        C355   1.361       .  A
C354        H357   1.079       .  S
C355        C356   1.380       .  A
C355        H358   1.083       .  S
C356        C391   1.449       .  S
C356        N980   1.345       .  A
N359        C462   1.466       .  S
N359        C363   1.366       .  A
N359        C360   1.376       .  A
C360        C361   1.384       .  A
C361        C362   1.357       .  A
C361        H364   1.083       .  S
C362        C363   1.380       .  A
C362        H365   1.083       .  S
C363        C559   1.480       .  S
N366        C463   1.479       .  S
N366        C370   1.367       .  A
N366        C367   1.386       .  A
C367        C368   1.384       .  A
C368        C369   1.352       .  A
C368        H371   1.084       .  S
C369        C370   1.375       .  A
C369        H372   1.083       .  S
C370        C513   1.468       .  S
O373        C389   1.256       .  A
O373      Zn1007   1.966   1_455  S
C374        O390   1.267       .  A
C374        O387   1.269       .  A
C374        C458   1.462       .  S
O375        C388   1.267       .  A
O376        C394   1.279       .  A
O376       Cd385   2.122       .  S
O377        C391   1.270       .  A
O377       Cd381   1.990       .  S
O378        C389   1.262       .  A
O378      Cd1009   2.053       .  S
Zn379      O1001   1.963       .  S
Zn379       O390   1.970       .  S
Zn379       O384   1.826       .  S
O380        C391   1.288       .  A
O380       Cd385   2.089       .  S
Cd381      O1006   2.047       .  S
Cd381       O383   2.044       .  S
Cd381       O384   1.963       .  S
Cd382       O386   2.093       .  S
Cd382       O395   2.012       .  S
Cd382       O384   1.943       .  S
O383        C393   1.274       .  A
O384       Cd385   1.991       .  S
Cd385       O387   2.092       .  S
O386        C393   1.274       .  A
C388        O392   1.279   1_565  A
C388        C397   1.435       .  S
C389        C435   1.425       .  S
C393        C582   1.475       .  S
C394        O395   1.275       .  A
O396        C412   1.263       .  A
O396      Zn1030   1.943   1_455  S
C397        O413   1.263       .  A
C397        O410   1.278       .  A
O398        C411   1.269       .  A
O398       Cd405   2.075       .  S
O399        C417   1.286       .  A
O399       Cd408   2.112       .  S
O400        C414   1.277       .  A
O400       Cd404   2.080       .  S
O401        C412   1.264       .  A
O401      Cd1032   2.057   1_455  S
Zn402      O1024   1.935       .  S
Zn402       O413   1.930       .  S
Zn402       O415   1.974       .  S
Zn402       O407   1.818       .  S
O403        C414   1.283       .  A
O403       Cd408   2.104       .  S
Cd404      O1029   2.055       .  S
Cd404       O406   2.053       .  S
Cd404       O407   1.979       .  S
Cd405       O409   2.094       .  S
Cd405       O418   2.062       .  S
Cd405       O407   1.963       .  S
O406        C416   1.284       .  A
O407       Cd408   1.925       .  S
Cd408       O410   2.062       .  S
O409        C416   1.278       .  A
C411        O415   1.267       .  A
C411        C457   1.460       .  S
C412        C420   1.434       .  S
C414        C575   1.479       .  S
C417        O418   1.286       .  A
O419        C435   1.264       .  A
O419       Zn425   1.916       .  S
C420        O436   1.256       .  A
C420        O433   1.263       .  A
O421        C434   1.273       .  A
O421       Cd428   2.121       .  S
O422        C440   1.279       .  A
O422       Cd431   2.042       .  S
O423        C437   1.272       .  A
O423       Cd427   2.032       .  S
O424        C435   1.270       .  A
O424       Cd427   2.059       .  S
Zn425       O438   1.951       .  S
Zn425       O430   1.844       .  S
O426        C437   1.276       .  A
O426       Cd431   2.101       .  S
Cd427       O429   2.050       .  S
Cd427       O430   2.010       .  S
Cd428       O432   2.088       .  S
Cd428       O441   2.082       .  S
Cd428       O430   2.032       .  S
O429        C439   1.268       .  A
O430       Cd431   2.017       .  S
O432        C439   1.275       .  A
C434        O438   1.263       .  A
C434        C443   1.463       .  S
C437        C568   1.475       .  S
C440        O441   1.282       .  A
O442        C458   1.265       .  A
O442       Zn762   1.947       .  S
C443        O459   1.265       .  A
C443        O456   1.275       .  A
O444        C457   1.271       .  A
O444       Cd451   2.089       .  S
O445        C463   1.297       .  A
O446        C460   1.295       .  A
O446      Cd1078   2.174   1_455  S
O447        C458   1.274       .  A
O447       Cd450   2.116       .  S
Zn448       O756   1.946       .  S
Zn448      O1089   1.965   1_445  S
Zn448       O453   1.854       .  S
O449        C460   1.304       .  A
O449       Cd454   2.190       .  S
Cd450      O1074   2.173       .  S
Cd450       O767   2.012       .  S
Cd451       O455   2.091       .  S
Cd451      O1092   2.110       .  S
Cd451      O1081   1.971   1_565  S
O452        C462   1.295   1_545  A
O453       Cd764   2.016   1_455  S
O453      Cd1079   1.973   1_445  S
Cd454       O456   2.122       .  S
O455        C462   1.289       .  A
C457        O461   1.263       .  A
C460        N465   1.476       .  S
O461      Zn1076   1.967   1_565  S
C463        O464   1.289       .  A
O464      Cd1079   2.117   1_455  S
N465        C469   1.374       .  A
N465        C466   1.387       .  A
C466        C467   1.386       .  A
C467        C468   1.356       .  A
C467        H470   1.081       .  S
C468        C469   1.372       .  A
C468        H471   1.083       .  S
C469        C536   1.479       .  S
O472        C488   1.265   1_655  A
O472       Zn478   1.950       .  S
C473        O489   1.264       .  A
C473        O486   1.274       .  A
C473        C556   1.462       .  S
O474        C487   1.272       .  A
O474       Cd481   2.090       .  S
O475        C493   1.298       .  A
O476        C490   1.295       .  A
O476      Cd1108   2.173   1_554  S
O477        C488   1.274       .  A
O477       Cd480   2.117       .  S
Zn478      O1117   1.954       .  S
Zn478       O483   1.854       .  S
O479        C490   1.303       .  A
O479       Cd484   2.185   1_554  S
Cd480      O1104   2.176   1_456  S
Cd480       O483   2.014   1_455  S
Cd481       O485   2.102   1_556  S
Cd481      O1122   2.115   1_456  S
O482        C492   1.294       .  A
O483      Cd1112   2.010       .  S
Cd484       O486   2.121       .  S
Cd484      O1111   2.007       .  S
O485        C492   1.290       .  A
C487        O491   1.263       .  A
C487        C533   1.460       .  S
C488        C510   1.461       .  S
O489      Zn1106   1.953       .  S
C490        N571   1.474       .  S
C492        N564   1.466       .  S
C493        O494   1.289       .  A
C493        N578   1.480       .  S
O494      Cd1109   2.115   1_554  S
O495        C511   1.279       .  A
C496        O512   1.254       .  A
C496        O509   1.262       .  A
C496        C557   1.421       .  S
O497        C510   1.269       .  A
O497       Cd504   2.090       .  S
O498        C516   1.271       .  A
O498       Cd507   1.996   1_655  S
O499        C513   1.272       .  A
O499       Cd503   2.076       .  S
O500        C511   1.266       .  A
Zn501      O1140   1.962   1_455  S
Zn501       O514   1.967       .  S
Zn501       O506   1.826       .  S
O502        C513   1.274       .  A
O502       Cd507   2.042       .  S
Cd503       O505   2.001       .  S
Cd503       O506   1.939       .  S
Cd504       O508   2.127       .  S
Cd504       O517   2.101       .  S
Cd504       O506   1.984       .  S
O505        C515   1.273       .  A
O506       Cd507   1.957       .  S
Cd507      O1137   2.043   1_455  S
O508        C515   1.281       .  A
O509      Cd1135   2.052       .  S
C510        O514   1.267       .  A
C511        C519   1.432       .  S
O512      Zn1129   1.967       .  S
C515        C612   1.489   1_565  S
C516        O517   1.289   1_655  A
C516        C619   1.457       .  S
O518        C534   1.263       .  A
O518      Zn1152   1.937       .  S
C519        O535   1.262       .  A
C519        O532   1.278       .  A
O520        C533   1.268       .  A
O520       Cd527   2.072       .  S
O521        C539   1.285       .  A
O521       Cd530   2.110       .  S
O522        C536   1.277       .  A
O522       Cd526   2.077       .  S
O523        C534   1.264       .  A
O523      Cd1154   2.050       .  S
Zn524      O1146   1.939   1_455  S
Zn524       O535   1.929       .  S
Zn524       O537   1.983       .  S
Zn524       O529   1.815       .  S
O525        C536   1.284       .  A
O525       Cd530   2.105       .  S
Cd526      O1151   2.043   1_455  S
Cd526       O528   2.048       .  S
Cd526       O529   1.971       .  S
Cd527       O531   2.105       .  S
Cd527       O540   2.072       .  S
Cd527       O529   1.950       .  S
O528        C538   1.284       .  A
O529       Cd530   1.922       .  S
Cd530       O532   2.057       .  S
O531        C538   1.280       .  A
C533        O537   1.267       .  A
C534        C542   1.430       .  S
C538        C616   1.487   1_455  S
C539        O540   1.288       .  A
C539        N622   1.431       .  S
O541        C557   1.264       .  A
O541       Zn547   1.909       .  S
C542        O558   1.258       .  A
C542        O555   1.262       .  A
O543        C556   1.274       .  A
O543       Cd550   2.125       .  S
O544        C562   1.279       .  A
O544       Cd553   2.037       .  S
O545        C559   1.274       .  A
O545       Cd549   2.044       .  S
O546        C557   1.269       .  A
O546       Cd549   2.048       .  S
Zn547       O560   1.943       .  S
Zn547       O552   1.844       .  S
O548        C559   1.276       .  A
O548       Cd553   2.104       .  S
Cd549       O551   2.056       .  S
Cd549       O552   2.011       .  S
Cd550       O554   2.090       .  S
Cd550       O563   2.084       .  S
Cd550       O552   2.029       .  S
O551        C561   1.269       .  A
O552       Cd553   2.012       .  S
O554        C561   1.276       .  A
C556        O560   1.262       .  A
C561        C626   1.482       .  S
C562        O563   1.282       .  A
C562        C609   1.467   1_565  S
N564        C568   1.365       .  A
N564        C565   1.374   1_554  A
C565        C600   1.483       .  S
C565        C566   1.384       .  A
C566        C567   1.356   1_556  A
C566        H569   1.083       .  S
C567        C568   1.380       .  A
C567        H570   1.083       .  S
N571        C575   1.374       .  A
N571        C572   1.386       .  A
C572        C586   1.517   1_554  S
C572        C573   1.385       .  A
C573        C574   1.355       .  A
C573        H576   1.080       .  S
C574        C575   1.372       .  A
C574        H577   1.083       .  S
N578        C582   1.369       .  A
N578        C579   1.387   1_554  A
C579        C601   1.509       .  S
C579        C580   1.385       .  A
C580        C581   1.354   1_556  A
C580        H583   1.084       .  S
C581        C582   1.377       .  A
C581        H584   1.083       .  S
O585        C601   1.292       .  A
O585       Zn591   2.133       .  S
C586        O602   1.288       .  A
C586        O599   1.277       .  A
O587        C600   1.276       .  A
O587       Cd594   2.068       .  S
O588        C606   1.280       .  A
O588       Cd597   2.083       .  S
O589        C603   1.283       .  A
O589       Cd593   2.089       .  S
O590        C601   1.277       .  A
O590       Cd593   2.108       .  S
Zn591       O602   2.100       .  S
Zn591       O604   2.089       .  S
Zn591       O596   1.956       .  S
O592        C603   1.285       .  A
O592       Cd597   2.122       .  S
Cd593       O595   2.122       .  S
Cd593       O596   2.021       .  S
Cd594       O598   2.112       .  S
Cd594       O607   2.159       .  S
Cd594       O596   2.046       .  S
O595        C605   1.285       .  A
O596       Cd597   2.035       .  S
Cd597       O599   2.136       .  S
O598        C605   1.284       .  A
C600        O604   1.286       .  A
C603        N615   1.457       .  S
C605        N608   1.459       .  S
C606        O607   1.281       .  A
C606        C623   1.509       .  S
C609        C610   1.383       .  A
C610        C611   1.367       .  A
C610        H613   1.083       .  S
C611        C612   1.393       .  A
C611        H614   1.083       .  S
N615       C1247   1.346       .  A
N615       C1244   1.359       .  A
C616       N1243   1.359       .  A
C616        C617   1.392       .  A
C617        C618   1.362       .  A
C617        H620   1.082       .  S
C618        C619   1.382       .  A
C618        H621   1.083       .  S
C619       N1243   1.347       .  A
N622        C626   1.358       .  A
N622        C623   1.373       .  A
C623        C624   1.391       .  A
C624        C625   1.369       .  A
C624        H627   1.083       .  S
C625        C626   1.365       .  A
C625        H628   1.078       .  S
O629        C645   1.293       .  A
O629       Zn635   2.132       .  S
C630        O646   1.288       .  A
C630        O643   1.280       .  A
C630        C780   1.523       .  S
O631        C644   1.277       .  A
O631       Cd638   2.074       .  S
O632        C650   1.281       .  A
O632       Cd641   2.083       .  S
O633        C647   1.282       .  A
O633       Cd637   2.090       .  S
O634        C645   1.273       .  A
O634       Cd637   2.087       .  S
Zn635       O646   2.100       .  S
Zn635       O648   2.096       .  S
Zn635       O640   1.954       .  S
O636        C647   1.288       .  A
O636       Cd641   2.141       .  S
Cd637       O639   2.098       .  S
Cd637       O640   2.022       .  S
Cd638       O642   2.114       .  S
Cd638       O651   2.159       .  S
Cd638       O640   2.045       .  S
O639        C649   1.281       .  A
O640       Cd641   2.035       .  S
Cd641       O643   2.155       .  S
O642        C649   1.284       .  A
C644        O648   1.286       .  A
C644        C674   1.486       .  S
C645        C681   1.503       .  S
C647        N666   1.460       .  S
C649        N659   1.456       .  S
C650        O651   1.281       .  A
C650        C653   1.509       .  S
N652        C731   1.433       .  S
N652        C656   1.358       .  A
N652        C653   1.375       .  A
C653        C654   1.391       .  A
C654        C655   1.369       .  A
C654        H657   1.083       .  S
C655        C656   1.364       .  A
C655        H658   1.068       .  S
C656        C753   1.481       .  S
N659        C977   1.354       .  A
N659        C974   1.350       .  A
C660        C754   1.467   1_565  S
C660        N973   1.351       .  A
C660        C661   1.382       .  A
C661        C662   1.367       .  A
C661        H664   1.083       .  S
C662        C663   1.393       .  A
C662        H665   1.083       .  S
C663        C708   1.493   1_565  S
C663        N973   1.354       .  A
C667        C730   1.488   1_455  S
C667        C668   1.393       .  A
C668        C669   1.362       .  A
C668        H671   1.079       .  S
C669        C670   1.380       .  A
C669        H672   1.083       .  S
C670        C705   1.453       .  S
N673        C776   1.466       .  S
N673        C677   1.364       .  A
N673        C674   1.374       .  A
C674        C675   1.384       .  A
C675        C676   1.357       .  A
C675        H678   1.083       .  S
C676        C677   1.379       .  A
C676        H679   1.083       .  S
C677        C873   1.475       .  S
N680        C777   1.479       .  S
N680        C684   1.367       .  A
N680        C681   1.385       .  A
C681        C682   1.385       .  A
C682        C683   1.352       .  A
C682        H685   1.084       .  S
C683        C684   1.375       .  A
C683        H686   1.083       .  S
C684        C827   1.465       .  S
O687        C703   1.254       .  A
C688        O704   1.267       .  A
C688        O701   1.269       .  A
C688        C772   1.464       .  S
O689        C702   1.268       .  A
O689      Cd1010   2.011       .  S
O690        C708   1.281       .  A
O690       Cd699   2.134       .  S
O691        C705   1.271       .  A
O691       Cd695   1.994       .  S
O692        C703   1.262       .  A
Zn693       O704   1.970       .  S
Zn693      O1020   1.997       .  S
Zn693       O698   1.828       .  S
O694        C705   1.289   1_655  A
O694       Cd699   2.100       .  S
Cd695       O697   2.048   1_455  S
Cd695       O698   1.967   1_455  S
Cd696      O1003   2.000   1_545  S
Cd696       O700   2.077       .  S
Cd696       O709   2.006       .  S
Cd696       O698   1.945       .  S
O697        C707   1.275       .  A
O698       Cd699   1.989       .  S
Cd699       O701   2.095       .  S
O700        C707   1.272       .  A
C702        O706   1.277       .  A
C702        C711   1.436       .  S
C703        C749   1.420       .  S
O706      Zn1007   1.988       .  S
C707        C896   1.470       .  S
C708        O709   1.274       .  A
O710        C726   1.261       .  A
C711        O727   1.265       .  A
C711        O724   1.278       .  A
O712        C725   1.267       .  A
O712       Cd719   2.066       .  S
O713        C731   1.286       .  A
O713       Cd722   2.121       .  S
O714        C728   1.277       .  A
O714       Cd718   2.077       .  S
O715        C726   1.263       .  A
Zn716       O727   1.933       .  S
Zn716       O729   1.967       .  S
Zn716       O721   1.824       .  S
O717        C728   1.285       .  A
O717       Cd722   2.111       .  S
Cd718       O720   2.054       .  S
Cd718       O721   1.984       .  S
Cd719       O723   2.099       .  S
Cd719       O732   2.062       .  S
Cd719       O721   1.963       .  S
O720        C730   1.284       .  A
O721       Cd722   1.929       .  S
Cd722       O724   2.061       .  S
O723        C730   1.278       .  A
C725        O729   1.266       .  A
C725        C771   1.454       .  S
C726        C734   1.429       .  S
C728        C889   1.482       .  S
C731        O732   1.287       .  A
O733        C749   1.265       .  A
O733       Zn739   1.916       .  S
C734        O750   1.259       .  A
C734        O747   1.261       .  A
O735        C748   1.272       .  A
O735       Cd742   2.113       .  S
O736        C754   1.279       .  A
O736       Cd745   2.041       .  S
O737        C751   1.272       .  A
O737       Cd741   2.035       .  S
O738        C749   1.269       .  A
O738       Cd741   2.046       .  S
Zn739      O1064   1.901   1_545  S
Zn739       O752   1.942       .  S
Zn739       O744   1.841       .  S
O740        C751   1.276       .  A
O740       Cd745   2.096       .  S
Cd741       O743   2.049       .  S
Cd741       O744   2.005       .  S
Cd742       O746   2.091       .  S
Cd742       O755   2.082       .  S
Cd742       O744   2.026       .  S
O743        C753   1.268       .  A
O744       Cd745   2.009       .  S
Cd745      O1061   2.045   1_545  S
O746        C753   1.276       .  A
O747      Cd1059   2.042       .  S
C748        O752   1.263       .  A
C748        C757   1.457       .  S
O750      Zn1053   1.904       .  S
C751        C882   1.473       .  S
C754        O755   1.282       .  A
O756        C772   1.264   1_455  A
C757        O773   1.264       .  A
C757        O770   1.274       .  A
O758        C771   1.270       .  A
O758       Cd765   2.083       .  S
O759        C777   1.299       .  A
O759      Cd1082   2.219       .  S
O760        C774   1.295       .  A
O761        C772   1.275       .  A
O761       Cd764   2.124       .  S
Zn762      O1087   1.952       .  S
Zn762       O767   1.855       .  S
O763        C774   1.303       .  A
O763       Cd768   2.182       .  S
Cd764      O1080   2.179   1_545  S
Cd765       O769   2.099       .  S
O766        C776   1.293       .  A
O766      Cd1078   2.174       .  S
O767      Cd1082   2.006       .  S
Cd768      O1073   2.217   1_545  S
Cd768       O770   2.114       .  S
Cd768      O1081   2.012       .  S
O769        C776   1.290       .  A
C771        O775   1.262       .  A
O773      Zn1076   1.950       .  S
C774        N779   1.474       .  S
C777        O778   1.288       .  A
N779        C783   1.375       .  A
N779        C780   1.387       .  A
C780        C781   1.386       .  A
C781        C782   1.357       .  A
C781        H784   1.080       .  S
C782        C783   1.372       .  A
C782        H785   1.083       .  S
C783        C850   1.483       .  S
O786        C802   1.263       .  A
O786       Zn792   1.943       .  S
C787        O803   1.263       .  A
C787        O800   1.275       .  A
C787        C870   1.461       .  S
O788        C801   1.271       .  A
O788       Cd795   2.082       .  S
O789        C807   1.298       .  A
O789      Cd1112   2.215   1_544  S
O790        C804   1.296       .  A
O791        C802   1.275       .  A
O791       Cd794   2.128       .  S
Zn792      O1119   1.961       .  S
Zn792       O797   1.857       .  S
O793        C804   1.303       .  A
O793       Cd798   2.185   1_554  S
Cd794      O1110   2.184   1_556  S
Cd794       O797   2.018       .  S
Cd795       O799   2.097   1_556  S
Cd795      O1111   1.968   1_545  S
O796        C806   1.293   1_565  A
O796      Cd1108   2.173   1_554  S
O797      Cd1109   1.967       .  S
Cd798      O1103   2.213   1_556  S
Cd798       O800   2.121       .  S
O799        C806   1.290       .  A
C801        O805   1.263       .  A
C801        C847   1.456       .  S
C802        C824   1.465       .  S
C804        N885   1.476       .  S
O805      Zn1106   1.964   1_545  S
C806        N878   1.464       .  S
C807        O808   1.288       .  A
C807        N892   1.478       .  S
O809        C825   1.279   1_565  A
O809      Zn1129   2.000       .  S
C810        O826   1.253       .  A
C810        O823   1.260       .  A
C810        C871   1.416       .  S
O811        C824   1.269       .  A
O811       Cd818   2.091       .  S
O812        C830   1.271       .  A
O812       Cd821   1.990       .  S
O813        C827   1.270       .  A
O813       Cd817   2.069       .  S
O814        C825   1.265       .  A
O814      Cd1131   1.988   1_545  S
Zn815      O1123   2.004       .  S
Zn815       O828   1.974       .  S
Zn815       O820   1.831       .  S
O816        C827   1.274       .  A
O816       Cd821   2.039       .  S
Cd817      O1128   1.985       .  S
Cd817       O819   2.001       .  S
Cd817       O820   1.938       .  S
Cd818       O822   2.133       .  S
Cd818       O831   2.107       .  S
Cd818       O820   1.984       .  S
O819        C829   1.274       .  A
O820       Cd821   1.965       .  S
O822        C829   1.281       .  A
C824        O828   1.268       .  A
C825        C833   1.430       .  S
C829        C926   1.492       .  S
C830        O831   1.290       .  A
C830        C933   1.456       .  S
O832        C848   1.262       .  A
C833        O849   1.261       .  A
C833        O846   1.278       .  A
O834        C847   1.268       .  A
O834       Cd841   2.069       .  S
O835        C853   1.286       .  A
O835       Cd844   2.115       .  S
O836        C850   1.277       .  A
O836       Cd840   2.079       .  S
O837        C848   1.264       .  A
Zn838       O849   1.923       .  S
Zn838       O851   1.974       .  S
Zn838       O843   1.820       .  S
O839        C850   1.285       .  A
O839       Cd844   2.112       .  S
Cd840       O842   2.050       .  S
Cd840       O843   1.970       .  S
Cd841       O845   2.101       .  S
Cd841       O854   2.072       .  S
Cd841       O843   1.952       .  S
O842        C852   1.284       .  A
O843       Cd844   1.922       .  S
Cd844       O846   2.057       .  S
O845        C852   1.280       .  A
C847        O851   1.267       .  A
C848        C856   1.433       .  S
C852        C930   1.486       .  S
C853        O854   1.288       .  A
C853        N936   1.433       .  S
O855        C871   1.265       .  A
O855       Zn861   1.911       .  S
C856        O872   1.257       .  A
C856        O869   1.262       .  A
O857        C870   1.273       .  A
O857       Cd864   2.116       .  S
O858        C876   1.278       .  A
O858       Cd867   2.028       .  S
O859        C873   1.273       .  A
O859       Cd863   2.041       .  S
O860        C871   1.268       .  A
O860       Cd863   2.037       .  S
Zn861      O1186   1.898       .  S
Zn861       O874   1.953       .  S
Zn861       O866   1.842       .  S
O862        C873   1.275       .  A
O862       Cd867   2.093       .  S
Cd863       O865   2.051       .  S
Cd863       O866   2.000       .  S
Cd864       O868   2.092       .  S
Cd864       O877   2.084       .  S
Cd864       O866   2.018       .  S
O865        C875   1.269       .  A
O866       Cd867   2.006       .  S
Cd867      O1183   2.040       .  S
O868        C875   1.276       .  A
O869      Cd1181   2.050   1_545  S
C870        O874   1.264       .  A
O872      Zn1175   1.904   1_545  S
C875        C940   1.482       .  S
C876        O877   1.282       .  A
C876        C923   1.463       .  S
N878        C882   1.364       .  A
N878        C879   1.372   1_554  A
C879        C914   1.483       .  S
C879        C880   1.384       .  A
C880        C881   1.357   1_556  A
C880        H883   1.083       .  S
C881        C882   1.380       .  A
C881        H884   1.083       .  S
N885        C889   1.375       .  A
N885        C886   1.387       .  A
C886        C900   1.521   1_554  S
C886        C887   1.385       .  A
C887        C888   1.356       .  A
C887        H890   1.080       .  S
C888        C889   1.372       .  A
C888        H891   1.083       .  S
N892        C896   1.368       .  A
N892        C893   1.385   1_554  A
C893        C915   1.504       .  S
C893        C894   1.385       .  A
C894        C895   1.353   1_556  A
C894        H897   1.084       .  S
C895        C896   1.376       .  A
C895        H898   1.083       .  S
O899        C915   1.293       .  A
O899       Zn905   2.132       .  S
C900        O916   1.289       .  A
C900        O913   1.278       .  A
O901        C914   1.277       .  A
O901       Cd908   2.073       .  S
O902        C920   1.279       .  A
O902       Cd911   2.076       .  S
O903        C917   1.283       .  A
O903       Cd907   2.096       .  S
O904        C915   1.275       .  A
O904       Cd907   2.095       .  S
Zn905       O916   2.108       .  S
Zn905       O918   2.090       .  S
Zn905       O910   1.957       .  S
O906        C917   1.285       .  A
O906       Cd911   2.127       .  S
Cd907       O909   2.103       .  S
Cd907       O910   2.022       .  S
Cd908       O912   2.115       .  S
Cd908       O921   2.161       .  S
Cd908       O910   2.046       .  S
O909        C919   1.282       .  A
O910       Cd911   2.032       .  S
Cd911       O913   2.140       .  S
O912        C919   1.285       .  A
C914        O918   1.286       .  A
C917        N929   1.460       .  S
C919        N922   1.456       .  S
C920        O921   1.281       .  A
C920        C937   1.509       .  S
N922       C1240   1.352       .  A
N922       C1237   1.351       .  A
C923       N1236   1.350       .  A
C923        C924   1.382       .  A
C924        C925   1.366       .  A
C924        H927   1.083       .  S
C925        C926   1.393       .  A
C925        H928   1.084       .  S
C926       N1236   1.355       .  A
C930        C931   1.392       .  A
C931        C932   1.362       .  A
C931        H934   1.081       .  S
C932        C933   1.382       .  A
C932        H935   1.083       .  S
N936        C940   1.359       .  A
N936        C937   1.374       .  A
C937        C938   1.391       .  A
C938        C939   1.369       .  A
C938        H941   1.083       .  S
C939        C940   1.367       .  A
C939        H942   1.071       .  S
O943        C959   1.294       .  A
O943       Zn949   2.139       .  S
C944        O960   1.289       .  A
C944        O957   1.280       .  A
C944       C1094   1.524       .  S
O945        C958   1.278       .  A
O945       Cd952   2.082       .  S
O946        C964   1.282       .  A
O946       Cd955   2.089       .  S
O947        C961   1.281       .  A
O947       Cd951   2.089       .  S
O948        C959   1.273       .  A
O948       Cd951   2.087       .  S
Zn949       O960   2.110       .  S
Zn949       O962   2.101       .  S
Zn949       O954   1.960       .  S
O950        C961   1.288       .  A
O950       Cd955   2.139       .  S
Cd951       O953   2.097       .  S
Cd951       O954   2.025       .  S
Cd952       O956   2.125       .  S
Cd952       O965   2.159       .  S
Cd952       O954   2.046       .  S
O953        C963   1.281       .  A
O954       Cd955   2.038       .  S
Cd955       O957   2.151       .  S
O956        C963   1.286       .  A
C958        O962   1.287       .  A
C958        C988   1.490       .  S
C959        C995   1.504       .  S
C961        N980   1.459       .  S
C963        N973   1.458       .  S
C964        O965   1.281       .  A
C964        C967   1.510       .  S
N966       C1045   1.436       .  S
N966        C970   1.358       .  A
N966        C967   1.376       .  A
C967        C968   1.392       .  A
C968        C969   1.370       .  A
C968        H971   1.083       .  S
C969        C970   1.367       .  A
C969        H972   1.071       .  S
C970       C1067   1.480       .  S
C974       C1068   1.465       .  S
C974        C975   1.382       .  A
C975        C976   1.368       .  A
C975        H978   1.083       .  S
C976        C977   1.393       .  A
C976        H979   1.083       .  S
C977       C1022   1.490       .  S
C981       C1044   1.493   1_455  S
C981        C982   1.393       .  A
C982        C983   1.362       .  A
C982        H985   1.081       .  S
C983        C984   1.381       .  A
C983        H986   1.083       .  S
C984       C1019   1.453       .  S
N987       C1090   1.467       .  S
N987        C991   1.365       .  A
N987        C988   1.375       .  A
C988        C989   1.384       .  A
C989        C990   1.358       .  A
C989        H992   1.083       .  S
C990        C991   1.380       .  A
C990        H993   1.083       .  S
C991       C1187   1.477       .  S
N994       C1091   1.479       .  S
N994        C998   1.368       .  A
N994        C995   1.385       .  A
C995        C996   1.385       .  A
C996        C997   1.352       .  A
C996        H999   1.084       .  S
C997        C998   1.375       .  A
C997       H1000   1.083       .  S
C998       C1141   1.468       .  S
O1001      C1017   1.255       .  A
C1002      O1018   1.267       .  A
C1002      O1015   1.269       .  A
C1002      C1086   1.464       .  S
O1003      C1016   1.266       .  A
O1004      C1022   1.279       .  A
O1004     Cd1013   2.122       .  S
O1005      C1019   1.272       .  A
O1005     Cd1009   1.998       .  S
O1006      C1017   1.262       .  A
Zn1007     O1018   1.972       .  S
Zn1007     O1012   1.826       .  S
O1008      C1019   1.288   1_655  A
O1008     Cd1013   2.093       .  S
Cd1009     O1011   2.048   1_455  S
Cd1009     O1012   1.963   1_455  S
Cd1010     O1014   2.092       .  S
Cd1010     O1023   2.011       .  S
Cd1010     O1012   1.947       .  S
O1011      C1021   1.275       .  A
O1012     Cd1013   1.995       .  S
Cd1013     O1015   2.095       .  S
O1014      C1021   1.274       .  A
C1016      O1020   1.278   1_565  A
C1016      C1025   1.434       .  S
C1017      C1063   1.421       .  S
C1021      C1210   1.475       .  S
C1022      O1023   1.274       .  A
O1024      C1040   1.262       .  A
C1025      O1041   1.262       .  A
C1025      O1038   1.278       .  A
O1026      C1039   1.268       .  A
O1026     Cd1033   2.069       .  S
O1027      C1045   1.286       .  A
O1027     Cd1036   2.123       .  S
O1028      C1042   1.278       .  A
O1028     Cd1032   2.078       .  S
O1029      C1040   1.264       .  A
Zn1030     O1041   1.928       .  S
Zn1030     O1043   1.970       .  S
Zn1030     O1035   1.820       .  S
O1031      C1042   1.285       .  A
O1031     Cd1036   2.108       .  S
Cd1032     O1034   2.055       .  S
Cd1032     O1035   1.980       .  S
Cd1033     O1037   2.108       .  S
Cd1033     O1046   2.078       .  S
Cd1033     O1035   1.959       .  S
O1034      C1044   1.284       .  A
O1035     Cd1036   1.933       .  S
Cd1036     O1038   2.063       .  S
O1037      C1044   1.280       .  A
C1039      O1043   1.267       .  A
C1039      C1085   1.456       .  S
C1040      C1048   1.432       .  S
C1042      C1203   1.480       .  S
C1045      O1046   1.289       .  A
O1047      C1063   1.264       .  A
O1047     Zn1053   1.911       .  S
C1048      O1064   1.257       .  A
C1048      O1061   1.262       .  A
O1049      C1062   1.272       .  A
O1049     Cd1056   2.114       .  S
O1050      C1068   1.279       .  A
O1050     Cd1059   2.035       .  S
O1051      C1065   1.272       .  A
O1051     Cd1055   2.032       .  S
O1052      C1063   1.269       .  A
O1052     Cd1055   2.050       .  S
Zn1053     O1066   1.954       .  S
Zn1053     O1058   1.845       .  S
O1054      C1065   1.275       .  A
O1054     Cd1059   2.097       .  S
Cd1055     O1057   2.049       .  S
Cd1055     O1058   2.009       .  S
Cd1056     O1060   2.084       .  S
Cd1056     O1069   2.080       .  S
Cd1056     O1058   2.029       .  S
O1057      C1067   1.268       .  A
O1058     Cd1059   2.011       .  S
O1060      C1067   1.275       .  A
C1062      O1066   1.264       .  A
C1062      C1071   1.461       .  S
C1065      C1196   1.474       .  S
C1068      O1069   1.281       .  A
O1070      C1086   1.265   1_455  A
C1071      O1087   1.264       .  A
C1071      O1084   1.275       .  A
O1072      C1085   1.271       .  A
O1072     Cd1079   2.087       .  S
O1073      C1091   1.298       .  A
O1074      C1088   1.295       .  A
O1075      C1086   1.274       .  A
O1075     Cd1078   2.120       .  S
Zn1076     O1081   1.854       .  S
O1077      C1088   1.304       .  A
O1077     Cd1082   2.192       .  S
Cd1079     O1083   2.103       .  S
O1080      C1090   1.294       .  A
Cd1082     O1084   2.119       .  S
O1083      C1090   1.290       .  A
C1085      O1089   1.263       .  A
C1088      N1093   1.476       .  S
C1091      O1092   1.288       .  A
N1093      C1097   1.375       .  A
N1093      C1094   1.387       .  A
C1094      C1095   1.385       .  A
C1095      C1096   1.358       .  A
C1095      H1098   1.080       .  S
C1096      C1097   1.372       .  A
C1096      H1099   1.083       .  S
C1097      C1164   1.483       .  S
O1100      C1116   1.265       .  A
O1100     Zn1106   1.946       .  S
C1101      O1117   1.264       .  A
C1101      O1114   1.274       .  A
C1101      C1184   1.461       .  S
O1102      C1115   1.271       .  A
O1102     Cd1109   2.081       .  S
O1103      C1121   1.298       .  A
O1104      C1118   1.295       .  A
O1105      C1116   1.274       .  A
O1105     Cd1108   2.119       .  S
Zn1106     O1111   1.854       .  S
O1107      C1118   1.303       .  A
O1107     Cd1112   2.182   1_554  S
Cd1108     O1111   2.014       .  S
Cd1109     O1113   2.105   1_556  S
O1110      C1120   1.294       .  A
Cd1112     O1114   2.121       .  S
O1113      C1120   1.290       .  A
C1115      O1119   1.263       .  A
C1115      C1161   1.455       .  S
C1116      C1138   1.463       .  S
C1118      N1199   1.475       .  S
C1120      N1192   1.467       .  S
C1121      O1122   1.290       .  A
C1121      N1206   1.480       .  S
O1123      C1139   1.279       .  A
C1124      O1140   1.254       .  A
C1124      O1137   1.262       .  A
C1124      C1185   1.416       .  S
O1125      C1138   1.269       .  A
O1125     Cd1132   2.091       .  S
O1126      C1144   1.271       .  A
O1126     Cd1135   1.990       .  S
O1127      C1141   1.270       .  A
O1127     Cd1131   2.072       .  S
O1128      C1139   1.264       .  A
Zn1129     O1142   1.970       .  S
Zn1129     O1134   1.829       .  S
O1130      C1141   1.274       .  A
O1130     Cd1135   2.047       .  S
Cd1131     O1133   1.998       .  S
Cd1131     O1134   1.938       .  S
Cd1132     O1136   2.127       .  S
Cd1132     O1145   2.100       .  S
Cd1132     O1134   1.985       .  S
O1133      C1143   1.272       .  A
O1134     Cd1135   1.964       .  S
O1136      C1143   1.281       .  A
C1138      O1142   1.267       .  A
C1139      C1147   1.431       .  S
C1143      C1240   1.487   1_565  S
C1144      O1145   1.289       .  A
C1144      C1247   1.454       .  S
O1146      C1162   1.262       .  A
C1147      O1163   1.261       .  A
C1147      O1160   1.279       .  A
O1148      C1161   1.267       .  A
O1148     Cd1155   2.064       .  S
O1149      C1167   1.286       .  A
O1149     Cd1158   2.119       .  S
O1150      C1164   1.277       .  A
O1150     Cd1154   2.079       .  S
O1151      C1162   1.264       .  A
Zn1152     O1163   1.925       .  S
Zn1152     O1165   1.980       .  S
Zn1152     O1157   1.822       .  S
O1153      C1164   1.285       .  A
O1153     Cd1158   2.111       .  S
Cd1154     O1156   2.050       .  S
Cd1154     O1157   1.972       .  S
Cd1155     O1159   2.097       .  S
Cd1155     O1168   2.065       .  S
Cd1155     O1157   1.955       .  S
O1156      C1166   1.283       .  A
O1157     Cd1158   1.924       .  S
Cd1158     O1160   2.059       .  S
O1159      C1166   1.278       .  A
C1161      O1165   1.267       .  A
C1162      C1170   1.427       .  S
C1166      C1244   1.485       .  S
C1167      O1168   1.287       .  A
C1167      N1250   1.432       .  S
O1169      C1185   1.264       .  A
O1169     Zn1175   1.906       .  S
C1170      O1186   1.257       .  A
C1170      O1183   1.261       .  A
O1171      C1184   1.273       .  A
O1171     Cd1178   2.119       .  S
O1172      C1190   1.280       .  A
O1172     Cd1181   2.036       .  S
O1173      C1187   1.273       .  A
O1173     Cd1177   2.044       .  S
O1174      C1185   1.269       .  A
O1174     Cd1177   2.039       .  S
Zn1175     O1188   1.945       .  S
Zn1175     O1180   1.840       .  S
O1176      C1187   1.276       .  A
O1176     Cd1181   2.100       .  S
Cd1177     O1179   2.054       .  S
Cd1177     O1180   2.004       .  S
Cd1178     O1182   2.092       .  S
Cd1178     O1191   2.080       .  S
Cd1178     O1180   2.023       .  S
O1179      C1189   1.269       .  A
O1180     Cd1181   2.010       .  S
O1182      C1189   1.277       .  A
C1184      O1188   1.263       .  A
C1189      C1254   1.482       .  S
C1190      O1191   1.282       .  A
C1190      C1237   1.464   1_565  S
N1192      C1196   1.365       .  A
N1192      C1193   1.374   1_554  A
C1193      C1228   1.483       .  S
C1193      C1194   1.383       .  A
C1194      C1195   1.355   1_556  A
C1194      H1197   1.083       .  S
C1195      C1196   1.379       .  A
C1195      H1198   1.083       .  S
N1199      C1203   1.374       .  A
N1199      C1200   1.386       .  A
C1200      C1214   1.520   1_554  S
C1200      C1201   1.384       .  A
C1201      C1202   1.356       .  A
C1201      H1204   1.079       .  S
C1202      C1203   1.372       .  A
C1202      H1205   1.083       .  S
N1206      C1210   1.368       .  A
N1206      C1207   1.386   1_554  A
C1207      C1229   1.510       .  S
C1207      C1208   1.385       .  A
C1208      C1209   1.355   1_556  A
C1208      H1211   1.084       .  S
C1209      C1210   1.377       .  A
C1209      H1212   1.083       .  S
O1213      C1229   1.294       .  A
O1213     Zn1219   2.145       .  S
C1214      O1230   1.290       .  A
C1214      O1227   1.278       .  A
O1215      C1228   1.276       .  A
O1215     Cd1222   2.067       .  S
O1216      C1234   1.280       .  A
O1216     Cd1225   2.080       .  S
O1217      C1231   1.283       .  A
O1217     Cd1221   2.092       .  S
O1218      C1229   1.276       .  A
O1218     Cd1221   2.101       .  S
Zn1219     O1230   2.114       .  S
Zn1219     O1232   2.096       .  S
Zn1219     O1224   1.960       .  S
O1220      C1231   1.285       .  A
O1220     Cd1225   2.124       .  S
Cd1221     O1223   2.115       .  S
Cd1221     O1224   2.021       .  S
Cd1222     O1226   2.110       .  S
Cd1222     O1235   2.158       .  S
Cd1222     O1224   2.049       .  S
O1223      C1233   1.284       .  A
O1224     Cd1225   2.034       .  S
Cd1225     O1227   2.137       .  S
O1226      C1233   1.283       .  A
C1228      O1232   1.288       .  A
C1231      N1243   1.459       .  S
C1233      N1236   1.459       .  S
C1234      O1235   1.281       .  A
C1234      C1251   1.509       .  S
C1237      C1238   1.382       .  A
C1238      C1239   1.366       .  A
C1238      H1241   1.083       .  S
C1239      C1240   1.393       .  A
C1239      H1242   1.084       .  S
C1244      C1245   1.392       .  A
C1245      C1246   1.361       .  A
C1245      H1248   1.080       .  S
C1246      C1247   1.381       .  A
C1246      H1249   1.083       .  S
N1250      C1254   1.359       .  A
N1250      C1251   1.374       .  A
C1251      C1252   1.391       .  A
C1252      C1253   1.368       .  A
C1252      H1255   1.083       .  S
C1253      C1254   1.365       .  A
C1253      H1256   1.078       .  S
