geometry optimzed in LAMMPS
_audit_creation_date              2020-12-01 
_audit_creation_method            'lammps2cif' 
_symmetry_space_group_name_H-M    'P1' 
_symmetry_Int_Tables_number       1 
_symmetry_cell_setting            triclinic 
loop_ 
_symmetry_equiv_pos_as_xyz 
  x,y,z 
_cell_length_a                    43.43011844 
_cell_length_b                    37.1450455567882 
_cell_length_c                    33.03004208767175 
_cell_angle_alpha                 90.09337403860317 
_cell_angle_beta                  89.84247119769739 
_cell_angle_gamma                 89.98614011458329 
loop_ 
_atom_site_label 
_atom_site_type_symbol 
_atom_site_fract_x 
_atom_site_fract_y 
_atom_site_fract_z 
_atom_site_charge 
O1          O  0.24192170  0.80558456  0.22810251    -0.72400
O2          O  0.24360611  0.74905446  0.32343906    -0.72600
O3          O  0.28665096  0.77796108  0.27438130    -0.72500
O4          O  0.19897505  0.77676805  0.27678881    -0.72500
O5          O  0.19931433  0.72932297  0.23822208    -0.72400
O6          O  0.28648469  0.72807966  0.24011927    -0.72400
O7          O  0.24197948  0.70038530  0.28705766    -0.72400
O8          O  0.24392316  0.75670691  0.19196510    -0.72600
V9          V  0.24279738  0.77639296  0.27510462     1.35200
V10         V  0.24288899  0.72954853  0.24014644     1.35200
C11         C  0.24309628  0.79064374  0.19377184     0.76900
C12         C  0.24286847  0.71506570  0.32150802     0.76900
C13         C  0.30152182  0.75335773  0.25637835     0.76800
C14         C  0.18429191  0.75341467  0.25669964     0.76700
O15         O  0.99392978  0.80220803  0.27892365    -0.72400
O16         O  0.49281329  0.74717470  0.18174211    -0.72600
O17         O  0.44964264  0.77537554  0.23104102    -0.72500
O18         O  0.03710400  0.77461818  0.22947653    -0.72500
O19         O  0.03706889  0.72697642  0.26763037    -0.72400
O20         O  0.44969959  0.72469079  0.26361161    -0.72400
O21         O  0.99510949  0.69812827  0.21708444    -0.72400
O22         O  0.49173395  0.75282518  0.31369238    -0.72600
V23         V  0.99338116  0.77392498  0.23087418     1.35200
V24         V  0.99338087  0.72658278  0.26470314     1.35200
C25         C  0.99269912  0.78675598  0.31304917     0.76900
C26         C  0.99408658  0.71314293  0.18286478     0.76900
C27         C  0.43471900  0.74998574  0.24730835     0.76800
C28         C  0.05188684  0.75137016  0.24941310     0.76700
O29         O  0.24332375  0.25463049  0.68316893    -0.72400
O30         O  0.24856658  0.19655284  0.77730378    -0.72600
O31         O  0.20228748  0.22472815  0.73432463    -0.72500
O32         O  0.28954697  0.22632012  0.72638164    -0.72500
O33         O  0.29074012  0.27222155  0.76724767    -0.72400
O34         O  0.20331582  0.27503497  0.76791126    -0.72400
O35         O  0.24662538  0.24473033  0.81442687    -0.72400
O36         O  0.24762633  0.30270939  0.72008931    -0.72600
V37         V  0.24592809  0.22651225  0.73090799     1.35200
V38         V  0.24704244  0.27280347  0.76666580     1.35200
C39         C  0.24543623  0.28854568  0.68541465     0.76900
C40         C  0.24807669  0.21077777  0.81205484     0.76900
C41         C  0.18793285  0.24959911  0.75249905     0.76800
C42         C  0.30498393  0.24880524  0.74667591     0.76700
O43         O  0.99476246  0.24831957  0.81565967    -0.72400
O44         O  0.99719344  0.19274725  0.71966602    -0.72600
O45         O  0.03984115  0.22147703  0.76905088    -0.72500
O46         O  0.45212038  0.22032529  0.76658100    -0.72500
O47         O  0.45266925  0.26728820  0.72743479    -0.72400
O48         O  0.03949564  0.27206848  0.73650712    -0.72400
O49         O  0.00033339  0.24184340  0.68426788    -0.72400
O50         O  0.99204547  0.29721152  0.78014290    -0.72600
V51         V  0.99596361  0.22157845  0.76702714     1.35200
V52         V  0.99611015  0.26864604  0.73274899     1.35200
C53         C  0.99240555  0.28213332  0.81445582     0.76900
C54         C  0.99981056  0.20784787  0.68562140     0.76900
C55         C  0.05464581  0.24765493  0.75400095     0.76800
C56         C  0.43753829  0.24355425  0.74621569     0.76700
O57         O  0.25970626  0.75214366  0.82190537    -0.72400
O58         O  0.25658656  0.70167141  0.72258678    -0.72600
O59         O  0.30184354  0.72724405  0.76902096    -0.72500
O60         O  0.21465337  0.72645325  0.77477843    -0.72500
O61         O  0.21321696  0.77758040  0.74304268    -0.72400
O62         O  0.30058545  0.77760919  0.73602703    -0.72400
O63         O  0.25484144  0.75230657  0.68992537    -0.72400
O64         O  0.25877560  0.80294139  0.78964680    -0.72600
V65         V  0.25823513  0.72794807  0.77152937     1.35200
V66         V  0.25691245  0.77671564  0.74035465     1.35200
C67         C  0.25914212  0.78608487  0.82289248     0.76900
C68         C  0.25512037  0.71828956  0.68934431     0.76900
C69         C  0.31611888  0.75181460  0.75038732     0.76800
C70         C  0.19904808  0.75156601  0.75926734     0.76700
O71         O  0.05211125  0.72611074  0.73468604    -0.72400
O72         O  0.46463011  0.72512238  0.72774204    -0.72600
O73         O  0.01029306  0.75236784  0.68237445    -0.72500
O74         O  0.50606547  0.69861901  0.77963731    -0.72500
O75         O  0.00303602  0.74823354  0.81428486    -0.72400
O76         O  0.50966687  0.80221889  0.71671014    -0.72400
O77         O  0.46293721  0.77582230  0.76054973    -0.72400
O78         O  0.04974593  0.77497577  0.77050083    -0.72600
V79         V  0.00830987  0.72651418  0.73175437     1.35200
V80         V  0.50640572  0.77433219  0.76488524     1.35200
C81         C  0.06588439  0.75084438  0.75389343     0.76900
C82         C  0.44895457  0.75068522  0.74253902     0.76900
C83         C  0.51017910  0.78638854  0.68275426     0.76800
C84         C  0.50331627  0.71417811  0.81346083     0.76700
C85         C  0.25443440  0.86702382  0.97235305     0.79600
N86         N  0.25244917  0.90334297  0.97179230    -0.78700
C87         C  0.24953492  0.92240671  0.00654011     0.82100
N88         N  0.24895234  0.90484006  0.04256498    -0.78600
C89         C  0.25078584  0.86835170  0.04359014     0.82200
N90         N  0.25314085  0.84965148  0.00838939    -0.80400
C91         C  0.25475823  0.13320041  0.03388075     0.79600
N92         N  0.25344054  0.15033634  0.99783876    -0.78700
C93         C  0.25133026  0.13158296  0.96271822     0.82100
N94         N  0.25148740  0.09495711  0.96387126    -0.78600
C95         C  0.25317941  0.07745998  0.00000544     0.82200
N96         N  0.25408965  0.09681299  0.03478777    -0.80400
C97         C  0.24639021  0.36873222  0.53542461     0.79600
N98         N  0.24482049  0.40516768  0.53515905    -0.78700
C99         C  0.24617851  0.42368775  0.49975585     0.82100
N100        N  0.24967881  0.40525684  0.46432166    -0.78600
C101        C  0.25186879  0.36867790  0.46416485     0.82200
N102        N  0.25018542  0.35083484  0.49997968    -0.80400
C103        C  0.24295369  0.63506316  0.47098440     0.79600
N104        N  0.24337600  0.59851174  0.47120457    -0.78700
C105        C  0.24544220  0.58005735  0.50662036     0.82100
N106        N  0.24680535  0.59875218  0.54198156    -0.78600
C107        C  0.24661068  0.63531891  0.54205414     0.82200
N108        N  0.24513294  0.65314985  0.50643620    -0.80400
C109        C  0.50365636  0.86862313  0.46205043     0.79600
N110        N  0.50692049  0.85048134  0.49753354    -0.78700
C111        C  0.50897098  0.86841526  0.53339624     0.82100
N112        N  0.00723351  0.90491078  0.53352190    -0.78600
C113        C  0.00369375  0.92330994  0.49834109     0.82200
N114        N  0.00194083  0.90498596  0.46290153    -0.80400
C115        C  0.00949148  0.13204823  0.53415886     0.79600
N116        N  0.00969868  0.15156731  0.49947989    -0.78700
C117        C  0.00821726  0.13501888  0.46290184     0.82100
N118        N  0.00687515  0.09848712  0.46127548    -0.78600
C119        C  0.00673975  0.07866099  0.49578340     0.82200
N120        N  0.00766522  0.09568480  0.53211863    -0.80400
C121        C  0.99105114  0.36715873  0.96140698     0.79600
N122        N  0.98823073  0.40349663  0.96199007    -0.78700
C123        C  0.98905280  0.42194057  0.99745282     0.82100
N124        N  0.99277829  0.40366409  0.03276495    -0.78600
C125        C  0.99537604  0.36721495  0.03265629     0.82200
N126        N  0.99439774  0.34929712  0.99690072    -0.80400
C127        C  0.49096152  0.63230222  0.03285610     0.79600
N128        N  0.99040652  0.59573017  0.03250726    -0.78700
C129        C  0.99216854  0.57735302  0.99692954     0.82100
N130        N  0.99452972  0.59575211  0.96147334    -0.78600
C131        C  0.49600411  0.63233841  0.96173084     0.82200
N132        N  0.49406818  0.65019739  0.99741573    -0.80400
O133        O  0.29979687  0.27208632  0.23260445    -0.72400
O134        O  0.21251936  0.27264101  0.23338977    -0.72600
O135        O  0.25653340  0.29890335  0.28242883    -0.72500
O136        O  0.25592562  0.24616838  0.18390650    -0.72500
O137        O  0.25422212  0.19611069  0.21773509    -0.72400
O138        O  0.25774971  0.24894875  0.31612725    -0.72400
O139        O  0.21244457  0.22354323  0.26867525    -0.72400
O140        O  0.29971884  0.22103141  0.26458673    -0.72600
V141        V  0.25619787  0.27151332  0.23378856     1.35200
V142        V  0.25606608  0.22341136  0.26623365     1.35200
C143        C  0.31460081  0.24607861  0.24765311     0.76900
C144        C  0.19748077  0.24785396  0.25068213     0.76900
C145        C  0.25720205  0.28299069  0.31625007     0.76800
C146        C  0.25452602  0.21219083  0.18406321     0.76700
O147        O  0.00568610  0.24945765  0.17955383    -0.72400
O148        O  0.00656320  0.19760923  0.27844109    -0.72600
O149        O  0.46249764  0.22320549  0.22919993    -0.72500
O150        O  0.04981540  0.22359145  0.22876264    -0.72500
O151        O  0.04969272  0.27519015  0.25990835    -0.72400
O152        O  0.46247754  0.27244956  0.26453641    -0.72400
O153        O  0.00807870  0.24793727  0.31183711    -0.72400
O154        O  0.00398396  0.29966636  0.21321729    -0.72600
V155        V  0.00616451  0.22441741  0.22962700     1.35200
V156        V  0.00606775  0.27281154  0.26177248     1.35200
C157        C  0.00393988  0.28343267  0.17958963     0.76900
C158        C  0.00802257  0.21390595  0.31199540     0.76900
C159        C  0.44753514  0.24796608  0.24669277     0.76800
C160        C  0.06457859  0.24959157  0.24394384     0.76700
C161        C  0.14789725  0.27843084  0.23537381    -0.09800
C162        C  0.16331678  0.24747366  0.24925368     0.06400
C163        C  0.14561860  0.21680245  0.25979419    -0.03500
C164        C  0.11352680  0.21811133  0.25726850    -0.08000
C165        C  0.09839946  0.24929277  0.24433898     0.05500
C166        C  0.11579738  0.27944763  0.23262608    -0.03000
Br167      Br  0.09701542  0.32145945  0.20957615    -0.02700
H168        H  0.16082248  0.30198188  0.22618593     0.09500
H169        H  0.10021905  0.19464137  0.26585090     0.07500
Br170      Br  0.16297156  0.17161050  0.27645959    -0.03100
C171        C  0.36405085  0.27844172  0.25189026    -0.09800
C172        C  0.34847830  0.24581624  0.24629833     0.06400
C173        C  0.36556319  0.21418079  0.23904954    -0.03500
C174        C  0.39775679  0.21550934  0.23925807    -0.08000
C175        C  0.41346092  0.24804832  0.24623139     0.05500
C176        C  0.39614692  0.27993591  0.25174686    -0.03000
Br177      Br  0.41427378  0.32690339  0.25680531    -0.02700
H178        H  0.35111381  0.30306589  0.25659167     0.09500
H179        H  0.41055010  0.19089945  0.23389164     0.07500
Br180      Br  0.34633904  0.16915238  0.22566063    -0.03100
C181        C  0.01492027  0.33869518  0.14032944    -0.09800
C182        C  0.00198355  0.30409187  0.14158244     0.06400
C183        C  0.48674358  0.29074741  0.10705320    -0.03500
C184        C  0.48522412  0.31176121  0.07208920    -0.08000
C185        C  0.99809929  0.34646528  0.07074907     0.05500
C186        C  0.01315056  0.35989861  0.10549534    -0.03000
Br187      Br  0.03317224  0.40592891  0.10741550    -0.02700
H188        H  0.02678106  0.34926962  0.16660231     0.09500
H189        H  0.47310947  0.30113503  0.04604801     0.07500
Br190      Br  0.46520986  0.24555565  0.10655989    -0.03100
C191        C  0.00886430  0.48006636  0.02316648    -0.09800
C192        C  0.98861651  0.46171763  0.99734359     0.06400
C193        C  0.46980579  0.48179817  0.97081656    -0.03500
C194        C  0.47152558  0.51945587  0.97077753    -0.08000
C195        C  0.99162696  0.53765349  0.99690608     0.05500
C196        C  0.01071151  0.51758983  0.02289000    -0.03000
Br197      Br  0.04166356  0.53969721  0.05602283    -0.02700
H198        H  0.02414700  0.46510577  0.04277061     0.09500
H199        H  0.45667751  0.53463013  0.95075897     0.07500
Br200      Br  0.44014311  0.45969410  0.93561749    -0.03100
C201        C  0.02261976  0.14135877  0.39052840    -0.09800
C202        C  0.00851109  0.15626939  0.42499005     0.06400
C203        C  0.49479997  0.19070978  0.42200696    -0.03500
C204        C  0.49550981  0.20919774  0.38514494    -0.08000
C205        C  0.00911302  0.19386684  0.35057576     0.05500
C206        C  0.02300779  0.15964798  0.35361880    -0.03000
Br207      Br  0.04422274  0.13692438  0.30930234    -0.02700
H208        H  0.03373388  0.11536590  0.39230051     0.09500
H209        H  0.48448566  0.23530390  0.38321453     0.07500
Br210      Br  0.47251983  0.21301949  0.46570888    -0.03100
C211        C  0.01780800  0.98077234  0.46562552    -0.09800
C212        C  0.00314441  0.96300333  0.49778142     0.06400
C213        C  0.48847855  0.98355541  0.52806324    -0.03500
C214        C  0.48970986  0.02111247  0.52639521    -0.08000
C215        C  0.00489845  0.03893722  0.49456566     0.05500
C216        C  0.01867455  0.01824888  0.46352479    -0.03000
Br217      Br  0.04084350  0.03857406  0.41867210    -0.02700
H218        H  0.02946767  0.96541085  0.44236785     0.09500
H219        H  0.47838637  0.03648516  0.55002793     0.07500
Br220      Br  0.46478382  0.96224906  0.57095394    -0.03100
C221        C  0.24760746  0.31051365  0.42693258    -0.09800
C222        C  0.25467533  0.34750492  0.42577436     0.06400
C223        C  0.26419469  0.36239216  0.38834706    -0.03500
C224        C  0.26479200  0.34084646  0.35342711    -0.08000
C225        C  0.25708434  0.30406126  0.35465218     0.05500
C226        C  0.24899480  0.28882069  0.39237641    -0.03000
Br227      Br  0.23865285  0.23892451  0.39973926    -0.02700
H228        H  0.24065938  0.29800411  0.45504973     0.09500
H229        H  0.27188670  0.35296711  0.32508454     0.07500
Br230      Br  0.27891138  0.41085336  0.38242695    -0.03100
C231        C  0.23268097  0.52220373  0.47241815    -0.09800
C232        C  0.24546675  0.53998787  0.50608350     0.06400
C233        C  0.25800801  0.51889936  0.53766095    -0.03500
C234        C  0.25770791  0.48134085  0.53468593    -0.08000
C235        C  0.24530862  0.46365530  0.50079117     0.05500
C236        C  0.23233248  0.48461338  0.46958317    -0.03000
Br237      Br  0.21176262  0.46410387  0.42363411    -0.02700
H238        H  0.22236427  0.53761489  0.44816153     0.09500
H239        H  0.26788254  0.46580296  0.55895701     0.07500
Br240      Br  0.27759473  0.53866863  0.58486712    -0.03100
C241        C  0.27194510  0.20419671  0.11322928    -0.09800
C242        C  0.25394357  0.19193348  0.14573695     0.06400
C243        C  0.23609286  0.16053246  0.14096633    -0.03500
C244        C  0.23704666  0.14164538  0.10441877    -0.08000
C245        C  0.25516555  0.15378596  0.07197502     0.05500
C246        C  0.27279401  0.18539918  0.07657438    -0.03000
Br247      Br  0.30004421  0.20294582  0.03516888    -0.02700
H248        H  0.28596147  0.22812565  0.11664520     0.09500
H249        H  0.22296159  0.11776595  0.10101823     0.07500
Br250      Br  0.20818343  0.14361031  0.18185868    -0.03100
C251        C  0.23617096  0.01854408  0.97252662    -0.09800
C252        C  0.25284247  0.03773831  0.00179748     0.07200
C253        C  0.26808889  0.01853644  0.03280805    -0.03500
C254        C  0.26582181  0.98110369  0.03439510    -0.08000
C255        C  0.24921635  0.96199612  0.00510757     0.05500
C256        C  0.23424118  0.98103649  0.97388519    -0.03000
Br257      Br  0.20941621  0.95778963  0.93346811    -0.02700
H258        H  0.22407451  0.03280906  0.94881052     0.09500
H259        H  0.27803776  0.96673408  0.05794104     0.07500
Br260      Br  0.29447124  0.04095393  0.07213677    -0.03100
C261        C  0.99608879  0.81414050  0.57366385    -0.09800
C262        C  0.51060118  0.84790810  0.57194144     0.06400
C263        C  0.52518798  0.86121167  0.60721360    -0.03500
C264        C  0.52483156  0.84078552  0.64290571    -0.08000
C265        C  0.51025207  0.80706303  0.64442555     0.05500
C266        C  0.99549277  0.79398072  0.60931330    -0.03000
Br267      Br  0.97166912  0.75039954  0.60860226    -0.02700
H268        H  0.98418068  0.80371670  0.54735799     0.09500
H269        H  0.53632785  0.85117836  0.66954694     0.07500
Br270      Br  0.54726175  0.90601264  0.60862691    -0.03100
C271        C  0.98259239  0.64138082  0.88938171    -0.09800
C272        C  0.49898169  0.65285393  0.92361581     0.06400
C273        C  0.51685498  0.68460288  0.92116680    -0.03500
C274        C  0.51749656  0.70444313  0.88523946    -0.08000
C275        C  0.50105039  0.69302022  0.85111572     0.05500
C276        C  0.98338217  0.66119171  0.85340000    -0.03000
Br277      Br  0.95803856  0.64493696  0.80948152    -0.02700
H278        H  0.96840745  0.61742510  0.89094048     0.09500
H279        H  0.53153739  0.72851711  0.88364845     0.07500
Br280      Br  0.54260723  0.70114964  0.96463728    -0.03100
C281        C  0.14882364  0.78270791  0.76568150    -0.09800
C282        C  0.16508843  0.75056877  0.75961563     0.06400
C283        C  0.14858774  0.71850694  0.75239455    -0.03500
C284        C  0.11639862  0.71924200  0.75083678    -0.08000
C285        C  0.09997312  0.75144050  0.75682640     0.05500
C286        C  0.11664487  0.78345063  0.76475660    -0.03000
Br287      Br  0.09757368  0.82964028  0.77274173    -0.02700
H288        H  0.16127384  0.80751486  0.77118448     0.09500
H289        H  0.10416238  0.69441441  0.74472571     0.07500
Br290      Br  0.16866323  0.67339590  0.74156414    -0.03100
C291        C  0.36615243  0.78236868  0.73645285    -0.09800
C292        C  0.35008479  0.75048521  0.74546580     0.06400
C293        C  0.36692886  0.71797578  0.74884821    -0.03500
C294        C  0.39908475  0.71850264  0.74664424    -0.08000
C295        C  0.41506106  0.75073589  0.74021766     0.05500
C296        C  0.39829823  0.78261737  0.73337194    -0.03000
Br297      Br  0.41803558  0.82652516  0.71693862    -0.02700
H298        H  0.35372530  0.80732781  0.73195981     0.09500
H299        H  0.41171192  0.69360461  0.75063095     0.07500
Br300      Br  0.34786676  0.67152959  0.75416944    -0.03100
C301        C  0.27017907  0.84104239  0.86277317    -0.09800
C302        C  0.25873663  0.80575561  0.86177199     0.06400
C303        C  0.24666428  0.79056596  0.89765939    -0.03500
C304        C  0.24602210  0.81088190  0.93324166    -0.08000
C305        C  0.25707515  0.84639904  0.93415351     0.05500
C306        C  0.26975296  0.86129471  0.89840195    -0.03000
Br307      Br  0.28857464  0.90810058  0.89578056    -0.02700
H308        H  0.27993564  0.85289901  0.83567869     0.09500
H309        H  0.23606273  0.79898642  0.96018357     0.07500
Br310      Br  0.22874843  0.74329464  0.90018300    -0.03100
C311        C  0.23724033  0.66501379  0.65138844    -0.09800
C312        C  0.25307795  0.69793994  0.65117976     0.06400
C313        C  0.26640498  0.71028705  0.61481349    -0.03500
C314        C  0.26425355  0.68920993  0.57986394    -0.08000
C315        C  0.24856594  0.65608179  0.58011963     0.05500
C316        C  0.23436289  0.64443529  0.61622484    -0.03000
Br317      Br  0.20814968  0.60288227  0.61891061    -0.02700
H318        H  0.22619678  0.65568455  0.67889284     0.09500
H319        H  0.27511367  0.69873711  0.55232087     0.07500
Br320      Br  0.28892093  0.75469968  0.61109459    -0.03100
C321        C  0.99002990  0.13639992  0.60458183    -0.09800
C322        C  0.00905466  0.15018796  0.57383048     0.06400
C323        C  0.52627816  0.18164314  0.58123412    -0.03500
C324        C  0.52289726  0.19975613  0.61798271    -0.08000
C325        C  0.00309348  0.18670956  0.64819149     0.05500
C326        C  0.98695652  0.15429200  0.64162596    -0.03000
Br327      Br  0.95874314  0.13448348  0.68055331    -0.02700
H328        H  0.97670242  0.11218910  0.59933437     0.09500
H329        H  0.53613863  0.22404201  0.62318777     0.07500
Br330      Br  0.55619278  0.20001975  0.54367129    -0.03100
C331        C  0.99793293  0.34048651  0.85022477    -0.09800
C332        C  0.99075616  0.30366153  0.85207713     0.06400
C333        C  0.48313513  0.28836374  0.88993019    -0.03500
C334        C  0.48274781  0.30991977  0.92451301    -0.08000
C335        C  0.99045108  0.34661900  0.92291161     0.05500
C336        C  0.99831066  0.36187893  0.88505552    -0.03000
Br337      Br  0.01241331  0.41055771  0.87829864    -0.02700
H338        H  0.00437368  0.35258218  0.82162952     0.09500
H339        H  0.47651587  0.29759263  0.95306496     0.07500
Br340      Br  0.47273146  0.23848227  0.89756043    -0.03100
C341        C  0.13767088  0.28116184  0.74911999    -0.09800
C342        C  0.15400910  0.24914217  0.75532145     0.06400
C343        C  0.13761942  0.21733133  0.76400234    -0.03500
C344        C  0.10538494  0.21761246  0.76419229    -0.08000
C345        C  0.08881307  0.24931073  0.75603984     0.05500
C346        C  0.10545186  0.28162264  0.74940818    -0.03000
Br347      Br  0.08623344  0.32775561  0.74185275    -0.02700
H348        H  0.15007099  0.30595547  0.74333613     0.09500
H349        H  0.09326294  0.19272047  0.77035083     0.07500
Br350      Br  0.15808650  0.17331481  0.77825042    -0.03100
C351        C  0.35483393  0.24750320  0.70989230    -0.09800
C352        C  0.33881986  0.24737803  0.74678729     0.06400
C353        C  0.35541237  0.24532926  0.78332056    -0.03500
C354        C  0.38754110  0.24298065  0.78237948    -0.08000
C355        C  0.40363376  0.24385817  0.74553759     0.05500
C356        C  0.38703973  0.24648469  0.70900938    -0.03000
Br357      Br  0.40717390  0.24766658  0.65723075    -0.02700
H358        H  0.34218696  0.24904628  0.68155740     0.09500
H359        H  0.40012958  0.24127599  0.81074363     0.07500
Br360      Br  0.33521423  0.24439627  0.83510384    -0.03100
C361        C  0.23016723  0.29655047  0.61387019    -0.09800
C362        C  0.24503450  0.31058472  0.64810964     0.06400
C363        C  0.25939698  0.34465928  0.64531976    -0.03500
C364        C  0.25911623  0.36335153  0.60853111    -0.08000
C365        C  0.24480757  0.34881394  0.57410257     0.05500
C366        C  0.22966940  0.31533386  0.57732041    -0.03000
Br367      Br  0.20595474  0.29472193  0.53412718    -0.02700
H368        H  0.21841450  0.27087086  0.61562706     0.09500
H369        H  0.27083062  0.38904748  0.60658029     0.07500
Br370      Br  0.28141023  0.36640832  0.68940931    -0.03100
C371        C  0.23584131  0.20417058  0.88456056    -0.09800
C372        C  0.24845989  0.18889618  0.84942134     0.06400
C373        C  0.26106155  0.15384835  0.85141200    -0.03500
C374        C  0.26122424  0.13535474  0.88837926    -0.08000
C375        C  0.24912278  0.15110724  0.92374900     0.05500
C376        C  0.23581709  0.18579214  0.92125970    -0.03000
Br377      Br  0.21548523  0.20958233  0.96567244    -0.02700
H378        H  0.22546512  0.23069245  0.88348110     0.09500
H379        H  0.27160488  0.10884784  0.88964107     0.07500
Br380      Br  0.28003772  0.13043424  0.80582799    -0.03100
C381        C  0.48997279  0.81292021  0.42454698    -0.09800
C382        C  0.50046625  0.84866684  0.42323224     0.06400
C383        C  0.00694299  0.86417484  0.38493679    -0.03500
C384        C  0.00357949  0.84365863  0.34973350    -0.08000
C385        C  0.49363887  0.80775439  0.35122591     0.05500
C386        C  0.48618298  0.79261795  0.38927759    -0.03000
Br387      Br  0.46927887  0.74516025  0.39596117    -0.02700
H388        H  0.48407273  0.80067200  0.45328203     0.09500
H389        H  0.00943782  0.85581539  0.32092950     0.07500
Br390      Br  0.02182995  0.91237262  0.37723900    -0.03100
C391        C  0.47961768  0.70670973  0.11071425    -0.09800
C392        C  0.49339720  0.69159583  0.14509622     0.06400
C393        C  0.00536661  0.65625400  0.14252194    -0.03500
C394        C  0.00344982  0.63712674  0.10607824    -0.08000
C395        C  0.49012144  0.65252543  0.07153361     0.05500
C396        C  0.47769389  0.68763354  0.07433834    -0.03000
Br397      Br  0.45615983  0.71075205  0.03073794    -0.02700
H398        H  0.46973628  0.73347250  0.11225125     0.09500
H399        H  0.01338256  0.61039556  0.10446687     0.07500
Br400      Br  0.02653563  0.63312734  0.18637065    -0.03100
C401        C  0.13307123  0.75928727  0.28982767    -0.09800
C402        C  0.15042897  0.75423987  0.25438124     0.06400
C403        C  0.13508111  0.74960857  0.21712073    -0.03500
C404        C  0.10290186  0.74928518  0.21598670    -0.08000
C405        C  0.08563360  0.75287911  0.25161219     0.05500
C406        C  0.10085614  0.75828171  0.28872943    -0.03000
Br407      Br  0.07855770  0.76569396  0.33830754    -0.02700
H408        H  0.14459852  0.76330002  0.31854488     0.09500
H409        H  0.09129911  0.74574482  0.18724100     0.07500
Br410      Br  0.15685374  0.74534445  0.16663878    -0.03100
C411        C  0.38528410  0.78377581  0.25068494    -0.09800
C412        C  0.40063810  0.75052298  0.24826658     0.06400
C413        C  0.38306354  0.71860330  0.24757015    -0.03500
C414        C  0.35098942  0.72036754  0.25049066    -0.08000
C415        C  0.33561153  0.75350137  0.25409326     0.05500
C416        C  0.35312426  0.78556210  0.25361930    -0.03000
Br417      Br  0.33472748  0.83260590  0.25449761    -0.02700
H418        H  0.39839634  0.80859575  0.25071566     0.09500
H419        H  0.33796019  0.69549418  0.24995935     0.07500
Br420      Br  0.40113540  0.67184586  0.24018697    -0.03100
C421        C  0.23105190  0.86246245  0.11397277    -0.09800
C422        C  0.24978979  0.84910819  0.08256682     0.06400
C423        C  0.26675954  0.81720116  0.08885429    -0.03500
C424        C  0.26389640  0.79878667  0.12530643    -0.08000
C425        C  0.24489467  0.81176730  0.15637180     0.05500
C426        C  0.22849094  0.84409272  0.15077148    -0.03000
Br427      Br  0.20082789  0.86306890  0.19096260    -0.02700
H428        H  0.21778240  0.88684112  0.10956446     0.09500
H429        H  0.27715843  0.77438245  0.12970985     0.07500
Br430      Br  0.29594796  0.79830225  0.05048876    -0.03100
C431        C  0.22883135  0.70847657  0.39352023    -0.09800
C432        C  0.24236709  0.69341959  0.35883828     0.06400
C433        C  0.25484132  0.65836342  0.36085911    -0.03500
C434        C  0.25422487  0.63962768  0.39749683    -0.08000
C435        C  0.24125739  0.65503671  0.43245152     0.05500
C436        C  0.22780217  0.68961636  0.42994039    -0.03000
Br437      Br  0.20581566  0.71212392  0.47382402    -0.02700
H438        H  0.21843749  0.73496809  0.39215198     0.09500
H439        H  0.26466658  0.61317020  0.39883895     0.07500
Br440      Br  0.27472639  0.63519992  0.31577574    -0.03100
O441        O  0.74195682  0.80561323  0.22812721    -0.72400
O442        O  0.74356902  0.74906045  0.32345262    -0.72600
O443        O  0.78664984  0.77796230  0.27444910    -0.72500
O444        O  0.69897416  0.77680259  0.27676448    -0.72500
O445        O  0.69932067  0.72932552  0.23824746    -0.72400
O446        O  0.78649242  0.72813164  0.24010126    -0.72400
O447        O  0.74201035  0.70039836  0.28705454    -0.72400
O448        O  0.74390710  0.75673845  0.19197968    -0.72600
V449        V  0.74279633  0.77641045  0.27512439     1.35200
V450        V  0.74289606  0.72957350  0.24015287     1.35200
C451        C  0.74311007  0.79067499  0.19379337     0.76900
C452        C  0.74286288  0.71507104  0.32151030     0.76900
C453        C  0.80152781  0.75338968  0.25640449     0.76800
C454        C  0.68429505  0.75343235  0.25669556     0.76700
O455        O  0.49390370  0.80219134  0.27894338    -0.72400
O456        O  0.99280218  0.74719316  0.18171831    -0.72600
O457        O  0.94965231  0.77543026  0.23102912    -0.72500
O458        O  0.53709719  0.77463091  0.22950379    -0.72500
O459        O  0.53708535  0.72695940  0.26761091    -0.72400
O460        O  0.94968437  0.72470977  0.26353787    -0.72400
O461        O  0.49509893  0.69810846  0.21710863    -0.72400
O462        O  0.99169052  0.75284260  0.31366629    -0.72600
V463        V  0.49337372  0.77390560  0.23089625     1.35200
V464        V  0.49339635  0.72656484  0.26472845     1.35200
C465        C  0.49270841  0.78673970  0.31307087     0.76900
C466        C  0.49408720  0.71312461  0.18288897     0.76900
C467        C  0.93471949  0.75003171  0.24726178     0.76800
C468        C  0.55189152  0.75137210  0.24941002     0.76700
O469        O  0.74333265  0.25459400  0.68314713    -0.72400
O470        O  0.74855591  0.19651603  0.77728397    -0.72600
O471        O  0.70228526  0.22470211  0.73429723    -0.72500
O472        O  0.78954649  0.22627404  0.72636894    -0.72500
O473        O  0.79074171  0.27217942  0.76722933    -0.72400
O474        O  0.70331931  0.27500622  0.76788867    -0.72400
O475        O  0.74662368  0.24469472  0.81440584    -0.72400
O476        O  0.74763475  0.30267274  0.72006805    -0.72600
V477        V  0.74592685  0.22647586  0.73088742     1.35200
V478        V  0.74704514  0.27276743  0.76664479     1.35200
C479        C  0.74544925  0.28850883  0.68539298     0.76900
C480        C  0.74806899  0.21074177  0.81203464     0.76900
C481        C  0.68793348  0.24957431  0.75247384     0.76800
C482        C  0.80498427  0.24875921  0.74666236     0.76700
O483        O  0.49476283  0.24832624  0.81564639    -0.72400
O484        O  0.49718981  0.19275491  0.71965105    -0.72600
O485        O  0.53983925  0.22147803  0.76903843    -0.72500
O486        O  0.95212232  0.22031215  0.76659502    -0.72500
O487        O  0.95266642  0.26727139  0.72744307    -0.72400
O488        O  0.53950011  0.27206747  0.73649018    -0.72400
O489        O  0.50033060  0.24185139  0.68425355    -0.72400
O490        O  0.49205610  0.29721920  0.78012997    -0.72600
V491        V  0.49596192  0.22158552  0.76701324     1.35200
V492        V  0.49611375  0.26865368  0.73273579     1.35200
C493        C  0.49241297  0.28214072  0.81444264     0.76900
C494        C  0.49980632  0.20785594  0.68560642     0.76900
C495        C  0.55464703  0.24765263  0.75398677     0.76800
C496        C  0.93753808  0.24353571  0.74622462     0.76700
O497        O  0.75970909  0.75210532  0.82189794    -0.72400
O498        O  0.75658401  0.70164520  0.72257171    -0.72600
O499        O  0.80184376  0.72721308  0.76900649    -0.72500
O500        O  0.71465303  0.72642097  0.77477035    -0.72500
O501        O  0.71321649  0.77755570  0.74304978    -0.72400
O502        O  0.80058323  0.77757891  0.73601361    -0.72400
O503        O  0.75483095  0.75228396  0.68991827    -0.72400
O504        O  0.75878312  0.80290661  0.78964614    -0.72600
V505        V  0.75823514  0.72791597  0.77151811     1.35200
V506        V  0.75691103  0.77668725  0.74035078     1.35200
C507        C  0.75915065  0.78604653  0.82288953     0.76900
C508        C  0.75511087  0.71826694  0.68933203     0.76900
C509        C  0.81611779  0.75178532  0.75037356     0.76800
C510        C  0.69904777  0.75153903  0.75926960     0.76700
O511        O  0.55210904  0.72611546  0.73468760    -0.72400
O512        O  0.96463155  0.72510905  0.72773794    -0.72600
O513        O  0.51029315  0.75237657  0.68237657    -0.72500
O514        O  0.00606833  0.69860676  0.77963223    -0.72500
O515        O  0.50302931  0.74824791  0.81428541    -0.72400
O516        O  0.00965508  0.80220951  0.71670902    -0.72400
O517        O  0.96293468  0.77580270  0.76055737    -0.72400
O518        O  0.54974821  0.77497702  0.77050875    -0.72600
V519        V  0.50830822  0.72652397  0.73175731     1.35200
V520        V  0.00640340  0.77432098  0.76488475     1.35200
C521        C  0.56588444  0.75084426  0.75389959     0.76900
C522        C  0.94895395  0.75066769  0.74254087     0.76900
C523        C  0.01017073  0.78637963  0.68275264     0.76800
C524        C  0.00332208  0.71416359  0.81345726     0.76700
C525        C  0.75445788  0.86698945  0.97234697     0.79600
N526        N  0.75247077  0.90330837  0.97177669    -0.78700
C527        C  0.74955405  0.92237862  0.00651922     0.82100
N528        N  0.74897039  0.90481956  0.04254776    -0.78600
C529        C  0.75080502  0.86833221  0.04358342     0.82200
N530        N  0.75316280  0.84962410  0.00838787    -0.80400
C531        C  0.75474145  0.13316941  0.03386732     0.79600
N532        N  0.75342358  0.15030627  0.99782569    -0.78700
C533        C  0.75131850  0.13155412  0.96270375     0.82100
N534        N  0.75148117  0.09492857  0.96385525    -0.78600
C535        C  0.75317304  0.07743042  0.99998845     0.82200
N536        N  0.75407810  0.09678181  0.03477242    -0.80400
C537        C  0.74642328  0.36870704  0.53540994     0.79600
N538        N  0.74484898  0.40514258  0.53515010    -0.78700
C539        C  0.74619824  0.42366654  0.49974855     0.82100
N540        N  0.74969444  0.40523963  0.46431103    -0.78600
C541        C  0.75188896  0.36866131  0.46414854     0.82200
N542        N  0.75021409  0.35081420  0.49996137    -0.80400
C543        C  0.74293283  0.63504005  0.47096782     0.79600
N544        N  0.74336392  0.59848870  0.47118990    -0.78700
C545        C  0.74543179  0.58003685  0.50660771     0.82100
N546        N  0.74678906  0.59873403  0.54196778    -0.78600
C547        C  0.74658603  0.63530068  0.54203830     0.82200
N548        N  0.74510583  0.65312916  0.50641892    -0.80400
C549        C  0.00364219  0.86861834  0.46204582     0.79600
N550        N  0.00690420  0.85047329  0.49752767    -0.78700
C551        C  0.00894700  0.86840481  0.53339304     0.82100
N552        N  0.50726403  0.90492178  0.53352142    -0.78600
C553        C  0.50372280  0.92331836  0.49833876     0.82200
N554        N  0.50196153  0.90499121  0.46290219    -0.80400
C555        C  0.50948032  0.13205891  0.53414065     0.79600
N556        N  0.50968710  0.15157852  0.49946217    -0.78700
C557        C  0.50820984  0.13503079  0.46288340     0.82100
N558        N  0.50687307  0.09849839  0.46125598    -0.78600
C559        C  0.50673815  0.07867153  0.49576380     0.82200
N560        N  0.50765904  0.09569529  0.53209947    -0.80400
C561        C  0.49107396  0.36717187  0.96138821     0.79600
N562        N  0.48825452  0.40351004  0.96197173    -0.78700
C563        C  0.48908135  0.42195347  0.99743484     0.82100
N564        N  0.49280998  0.40367645  0.03274591    -0.78600
C565        C  0.49540681  0.36722742  0.03263610     0.82200
N566        N  0.49442413  0.34931013  0.99688084    -0.80400
C567        C  0.99094529  0.63229558  0.03284639     0.79600
N568        N  0.49042793  0.59573699  0.03251048    -0.78700
C569        C  0.49218942  0.57736542  0.99692939     0.82100
N570        N  0.49454425  0.59577002  0.96147615    -0.78600
C571        C  0.99599533  0.63232012  0.96172202     0.82200
N572        N  0.99405849  0.65018497  0.99740325    -0.80400
O573        O  0.79979851  0.27206375  0.23257726    -0.72400
O574        O  0.71252168  0.27263326  0.23337026    -0.72600
O575        O  0.75654043  0.29889304  0.28240230    -0.72500
O576        O  0.75592169  0.24614608  0.18388596    -0.72500
O577        O  0.75421930  0.19609232  0.21772167    -0.72400
O578        O  0.75774715  0.24894096  0.31610572    -0.72400
O579        O  0.71244218  0.22353553  0.26865611    -0.72400
O580        O  0.79971635  0.22101559  0.26457284    -0.72600
V581        V  0.75619966  0.27149750  0.23376485     1.35200
V582        V  0.75606366  0.22339888  0.26621618     1.35200
C583        C  0.81460050  0.24605849  0.24763435     0.76900
C584        C  0.69748089  0.24784962  0.25066513     0.76900
C585        C  0.75720430  0.28298282  0.31622539     0.76800
C586        C  0.75452137  0.21216828  0.18404734     0.76700
O587        O  0.50568990  0.24947516  0.17953906    -0.72400
O588        O  0.50656148  0.19762910  0.27842657    -0.72600
O589        O  0.96249782  0.22318324  0.22921568    -0.72500
O590        O  0.54981592  0.22360936  0.22875026    -0.72500
O591        O  0.54969408  0.27520933  0.25989306    -0.72400
O592        O  0.96247515  0.27242851  0.26455071    -0.72400
O593        O  0.50808033  0.24795717  0.31182222    -0.72400
O594        O  0.50398694  0.29968493  0.21320040    -0.72600
V595        V  0.50616499  0.22443676  0.22961254     1.35200
V596        V  0.50606959  0.27283132  0.26175699     1.35200
C597        C  0.50394599  0.28345008  0.17957327     0.76900
C598        C  0.50802243  0.21392572  0.31198067     0.76900
C599        C  0.94753430  0.24794409  0.24670591     0.76800
C600        C  0.56457957  0.24960983  0.24393046     0.76700
C601        C  0.64790132  0.27844484  0.23538411    -0.09800
C602        C  0.66331715  0.24747761  0.24924254     0.06400
C603        C  0.64561569  0.21680540  0.25976827    -0.03500
C604        C  0.61352439  0.21811964  0.25724106    -0.08000
C605        C  0.59840038  0.24930899  0.24432879     0.05500
C606        C  0.61580152  0.27946876  0.23263879    -0.03000
Br607      Br  0.59702530  0.32150028  0.20962567    -0.02700
H608        H  0.66082938  0.30199848  0.22621218     0.09500
H609        H  0.60021442  0.19464767  0.26580972     0.07500
Br610      Br  0.66296332  0.17160598  0.27641710    -0.03100
C611        C  0.86405064  0.27842424  0.25185532    -0.09800
C612        C  0.84847830  0.24579524  0.24628544     0.06400
C613        C  0.86556402  0.21415500  0.23906657    -0.03500
C614        C  0.89775748  0.21548298  0.23928511    -0.08000
C615        C  0.91346063  0.24802594  0.24623752     0.05500
C616        C  0.89614678  0.27991751  0.25171995    -0.03000
Br617      Br  0.91427587  0.32688717  0.25673746    -0.02700
H618        H  0.85111363  0.30305187  0.25653247     0.09500
H619        H  0.91055168  0.19086962  0.23394217     0.07500
Br620      Br  0.84634225  0.16911902  0.22570394    -0.03100
C621        C  0.51493888  0.33870840  0.14031237    -0.09800
C622        C  0.50199777  0.30410723  0.14156437     0.06400
C623        C  0.98672224  0.29073375  0.10707594    -0.03500
C624        C  0.98519661  0.31174861  0.07211275    -0.08000
C625        C  0.49812859  0.34647692  0.07072775     0.05500
C626        C  0.51317781  0.35990938  0.10547570    -0.03000
Br627      Br  0.53320969  0.40593373  0.10739348    -0.02700
H628        H  0.52679692  0.34928234  0.16658726     0.09500
H629        H  0.97307858  0.30112264  0.04607405     0.07500
Br630      Br  0.96518519  0.24554414  0.10659116    -0.03100
C631        C  0.50889436  0.48007784  0.02314955    -0.09800
C632        C  0.48864493  0.46173033  0.99732786     0.06400
C633        C  0.96978177  0.48178433  0.97082559    -0.03500
C634        C  0.97150281  0.51944202  0.97078309    -0.08000
C635        C  0.49165145  0.53766608  0.99689929     0.05500
C636        C  0.51073887  0.51760140  0.02287859    -0.03000
Br637      Br  0.54168864  0.53970798  0.05601590    -0.02700
H638        H  0.52417923  0.46511632  0.04275018     0.09500
H639        H  0.95665812  0.53461526  0.95075942     0.07500
Br640      Br  0.94012535  0.45967898  0.93561827    -0.03100
C641        C  0.52261405  0.14137378  0.39051024    -0.09800
C642        C  0.50850505  0.15628333  0.42497232     0.06400
C643        C  0.99480249  0.19069342  0.42202293    -0.03500
C644        C  0.99551032  0.20917955  0.38515981    -0.08000
C645        C  0.50911224  0.19388567  0.35056056     0.05500
C646        C  0.52300525  0.15966570  0.35360226    -0.03000
Br647      Br  0.54422313  0.13694471  0.30928647    -0.02700
H648        H  0.53372660  0.11537995  0.39228089     0.09500
H649        H  0.98448405  0.23528450  0.38322819     0.07500
Br650      Br  0.97251867  0.21299967  0.46572385    -0.03100
C651        C  0.51782902  0.98078193  0.46561549    -0.09800
C652        C  0.50317001  0.96301183  0.49777467     0.06400
C653        C  0.98845849  0.98354811  0.52807397    -0.03500
C654        C  0.98969939  0.02110512  0.52641160    -0.08000
C655        C  0.50490452  0.03894661  0.49454711     0.05500
C656        C  0.51868558  0.01825922  0.46350881    -0.03000
Br657      Br  0.54084633  0.03858802  0.41865120    -0.02700
H658        H  0.52949129  0.96542099  0.44235937     0.09500
H659        H  0.97838003  0.03647935  0.55004648     0.07500
Br660      Br  0.96476024  0.96224466  0.57096318    -0.03100
C661        C  0.74761831  0.31050214  0.42691011    -0.09800
C662        C  0.75468738  0.34749280  0.42575407     0.06400
C663        C  0.76420064  0.36238313  0.38832563    -0.03500
C664        C  0.76479260  0.34084004  0.35340303    -0.08000
C665        C  0.75708655  0.30405424  0.35462719     0.05500
C666        C  0.74900117  0.28881162  0.39235219    -0.03000
Br667      Br  0.73866187  0.23891472  0.39971646    -0.02700
H668        H  0.74067417  0.29799047  0.45502784     0.09500
H669        H  0.77188353  0.35296253  0.32505990     0.07500
Br670      Br  0.77891888  0.41084394  0.38240881    -0.03100
C671        C  0.73267911  0.52217865  0.47241161    -0.09800
C672        C  0.74546300  0.53996722  0.50607476     0.06400
C673        C  0.75800771  0.51888294  0.53765371    -0.03500
C674        C  0.75771399  0.48132383  0.53468089    -0.08000
C675        C  0.74531823  0.46363406  0.50078648     0.05500
C676        C  0.73233719  0.48458835  0.46957847    -0.03000
Br677      Br  0.71176970  0.46407425  0.42363013    -0.02700
H678        H  0.72235909  0.53758634  0.44815469     0.09500
H679        H  0.76789161  0.46578926  0.55895235     0.07500
Br680      Br  0.77759194  0.53865965  0.58485778    -0.03100
C681        C  0.77193282  0.20416897  0.11321072    -0.09800
C682        C  0.75393656  0.19190596  0.14572341     0.06400
C683        C  0.73608985  0.16050049  0.14095955    -0.03500
C684        C  0.73703952  0.14161233  0.10441187    -0.08000
C685        C  0.75515182  0.15375459  0.07196245     0.05500
C686        C  0.77277936  0.18536902  0.07655735    -0.03000
Br687      Br  0.80002768  0.20291289  0.03514823    -0.02700
H688        H  0.78594777  0.22809967  0.11662165     0.09500
H689        H  0.72295692  0.11773023  0.10101616     0.07500
Br690      Br  0.70819272  0.14357129  0.18186261    -0.03100
C691        C  0.73618218  0.01851179  0.97249919    -0.09800
C692        C  0.75284516  0.03770908  0.00177627     0.07200
C693        C  0.76809323  0.01851020  0.03278733    -0.03500
C694        C  0.76583356  0.98107733  0.03437127    -0.08000
C695        C  0.74923438  0.96196691  0.00508004     0.05500
C696        C  0.73426019  0.98100367  0.97385449    -0.03000
Br697      Br  0.70944577  0.95775117  0.93343016    -0.02700
H698        H  0.72408584  0.03277453  0.94878149     0.09500
H699        H  0.77804918  0.96671021  0.05791932     0.07500
Br700      Br  0.79446742  0.04093214  0.07212229    -0.03100
C701        C  0.49610554  0.81415380  0.57366608    -0.09800
C702        C  0.01058090  0.84789673  0.57193748     0.06400
C703        C  0.02516712  0.86120332  0.60720884    -0.03500
C704        C  0.02481475  0.84077786  0.64290136    -0.08000
C705        C  0.01023862  0.80705378  0.64442346     0.05500
C706        C  0.49550709  0.79399249  0.60931385    -0.03000
Br707      Br  0.47168343  0.75041137  0.60859622    -0.02700
H708        H  0.48419741  0.80373175  0.54735935     0.09500
H709        H  0.03631116  0.85117289  0.66954149     0.07500
Br710      Br  0.04723386  0.90600906  0.60862145    -0.03100
C711        C  0.48260233  0.64139251  0.88938912    -0.09800
C712        C  0.99898166  0.65283010  0.92360495     0.06400
C713        C  0.01687199  0.68456530  0.92115302    -0.03500
C714        C  0.01751530  0.70441011  0.88522877    -0.08000
C715        C  0.00105650  0.69300184  0.85110945     0.05500
C716        C  0.48338790  0.66120136  0.85340595    -0.03000
Br717      Br  0.45805300  0.64493199  0.80948556    -0.02700
H718        H  0.46842817  0.61742795  0.89094589     0.09500
H719        H  0.03156741  0.72847503  0.88363607     0.07500
Br720      Br  0.04264606  0.70108172  0.96461539    -0.03100
C721        C  0.64882804  0.78268626  0.76570725    -0.09800
C722        C  0.66508827  0.75054658  0.75962348     0.06400
C723        C  0.64858338  0.71849122  0.75238447    -0.03500
C724        C  0.61639428  0.71923294  0.75082893    -0.08000
C725        C  0.59997320  0.75143246  0.75683510     0.05500
C726        C  0.61664949  0.78343614  0.76478097    -0.03000
Br727      Br  0.59758553  0.82962775  0.77278153    -0.02700
H728        H  0.66128180  0.80748853  0.77122231     0.09500
H729        H  0.60415484  0.69441043  0.74470403     0.07500
Br730      Br  0.66865345  0.67338304  0.74152160    -0.03100
C731        C  0.86615053  0.78234909  0.73646328    -0.09800
C732        C  0.85008377  0.75046037  0.74545489     0.06400
C733        C  0.86692876  0.71795074  0.74882205    -0.03500
C734        C  0.89908486  0.71848031  0.74662373    -0.08000
C735        C  0.91506040  0.75071739  0.74021751     0.05500
C736        C  0.89829658  0.78260121  0.73338767    -0.03000
Br737      Br  0.91803248  0.82651851  0.71698278    -0.02700
H738        H  0.85372253  0.80730934  0.73198327     0.09500
H739        H  0.91171254  0.69358114  0.75059777     0.07500
Br740      Br  0.84786656  0.67150200  0.75411181    -0.03100
C741        C  0.77020010  0.84099918  0.86277035    -0.09800
C742        C  0.75875389  0.80571422  0.86177102     0.06400
C743        C  0.74668530  0.79052526  0.89766102    -0.03500
C744        C  0.74604838  0.81084155  0.93324361    -0.08000
C745        C  0.75710145  0.84635885  0.93415178     0.05500
C746        C  0.76977784  0.86125227  0.89839814    -0.03000
Br747      Br  0.78859960  0.90805793  0.89577028    -0.02700
H748        H  0.77995469  0.85285491  0.83567414     0.09500
H749        H  0.73609073  0.79894769  0.96018743     0.07500
Br750      Br  0.72876473  0.74325653  0.90018653    -0.03100
C751        C  0.73723126  0.66498955  0.65137797    -0.09800
C752        C  0.75306106  0.69792090  0.65116526     0.06400
C753        C  0.76637455  0.71027525  0.61479357    -0.03500
C754        C  0.76421711  0.68920079  0.57984253    -0.08000
C755        C  0.74853953  0.65606604  0.58010288     0.05500
C756        C  0.73435018  0.64441171  0.61621434    -0.03000
Br757      Br  0.70815436  0.60284431  0.61891293    -0.02700
H758        H  0.72619854  0.65565376  0.67888695     0.09500
H759        H  0.77506788  0.69873374  0.55229527     0.07500
Br760      Br  0.78888470  0.75469157  0.61107014    -0.03100
C761        C  0.49001578  0.13641309  0.60456270    -0.09800
C762        C  0.50904348  0.15019807  0.57381270     0.06400
C763        C  0.02628466  0.18163695  0.58124994    -0.03500
C764        C  0.02290126  0.19975065  0.61799758    -0.08000
C765        C  0.50308685  0.18671825  0.64817549     0.05500
C766        C  0.48694440  0.15430490  0.64160760    -0.03000
Br767      Br  0.45872584  0.13450358  0.68053302    -0.02700
H768        H  0.47668478  0.11220534  0.59931350     0.09500
H769        H  0.03613885  0.22403968  0.62320108     0.07500
Br770      Br  0.05619634  0.20001871  0.54368633    -0.03100
C771        C  0.49795043  0.34049352  0.85020868    -0.09800
C772        C  0.49076782  0.30367006  0.85206321     0.06400
C773        C  0.98312538  0.28835211  0.88994323    -0.03500
C774        C  0.98273608  0.30990595  0.92452784    -0.08000
C775        C  0.49046865  0.34663112  0.92289429     0.05500
C776        C  0.49833162  0.36188737  0.88503803    -0.03000
Br777      Br  0.51244529  0.41056163  0.87828084    -0.02700
H778        H  0.50439359  0.35258657  0.82161290     0.09500
H779        H  0.97650596  0.29757601  0.95307890     0.07500
Br780      Br  0.97272439  0.23846940  0.89756921    -0.03100
C781        C  0.63767519  0.28114714  0.74910936    -0.09800
C782        C  0.65400982  0.24912281  0.75529848     0.06400
C783        C  0.63761688  0.21731358  0.76397580    -0.03500
C784        C  0.60538249  0.21759990  0.76416865    -0.08000
C785        C  0.58881421  0.24930265  0.75602596     0.05500
C786        C  0.60545621  0.28161361  0.74940406    -0.03000
Br787      Br  0.58624154  0.32775241  0.74187681    -0.02700
H788        H  0.65007777  0.30594004  0.74333227     0.09500
H789        H  0.59325780  0.19270901  0.77032232     0.07500
Br790      Br  0.65807945  0.17329291  0.77821883    -0.03100
C791        C  0.85483695  0.24745365  0.70988581    -0.09800
C792        C  0.83881974  0.24733049  0.74677830     0.06400
C793        C  0.85540915  0.24529395  0.78331491    -0.03500
C794        C  0.88753818  0.24295438  0.78237970    -0.08000
C795        C  0.90363393  0.24383060  0.74554037     0.05500
C796        C  0.88704300  0.24644598  0.70900858    -0.03000
Br797      Br  0.90718195  0.24763124  0.65723326    -0.02700
H798        H  0.84219225  0.24898981  0.68154850     0.09500
H799        H  0.90012439  0.24125901  0.81074640     0.07500
Br800      Br  0.83520682  0.24436933  0.83509569    -0.03100
C801        C  0.73018934  0.29652008  0.61384613    -0.09800
C802        C  0.74505770  0.31054781  0.64808782     0.06400
C803        C  0.75943059  0.34461657  0.64530073    -0.03500
C804        C  0.75915496  0.36331200  0.60851387    -0.08000
C805        C  0.74484190  0.34878273  0.57408420     0.05500
C806        C  0.72969705  0.31530621  0.57729799    -0.03000
Br807      Br  0.70597892  0.29470398  0.53410228    -0.02700
H808        H  0.71843019  0.27084411  0.61560051     0.09500
H809        H  0.77087548  0.38900440  0.60656560     0.07500
Br810      Br  0.78145081  0.36635216  0.68939255    -0.03100
C811        C  0.73583831  0.20414196  0.88454210    -0.09800
C812        C  0.74845007  0.18886148  0.84940212     0.06400
C813        C  0.76104575  0.15381085  0.85139411    -0.03500
C814        C  0.76120831  0.13532007  0.88836317    -0.08000
C815        C  0.74911332  0.15107838  0.92373387     0.05500
C816        C  0.73581508  0.18576722  0.92124346    -0.03000
Br817      Br  0.71549665  0.20957104  0.96565753    -0.02700
H818        H  0.72546767  0.23066671  0.88346201     0.09500
H819        H  0.77158381  0.10881051  0.88962523     0.07500
Br820      Br  0.78001455  0.13038904  0.80580965    -0.03100
C821        C  0.98994700  0.81292742  0.42452918    -0.09800
C822        C  0.00045835  0.84866654  0.42322408     0.06400
C823        C  0.50693018  0.86417627  0.38493930    -0.03500
C824        C  0.50356944  0.84365298  0.34974122    -0.08000
C825        C  0.99362913  0.80776681  0.35120809     0.05500
C826        C  0.98615682  0.79263131  0.38925536    -0.03000
Br827      Br  0.96923333  0.74518218  0.39592965    -0.02700
H828        H  0.98403309  0.80068086  0.45326031     0.09500
H829        H  0.50941291  0.85581059  0.32093239     0.07500
Br830      Br  0.52177883  0.91238802  0.37722293    -0.03100
C831        C  0.97961259  0.70671864  0.11069030    -0.09800
C832        C  0.99339444  0.69160988  0.14507378     0.06400
C833        C  0.50537353  0.65624277  0.14253881    -0.03500
C834        C  0.50346227  0.63712213  0.10609022    -0.08000
C835        C  0.99010759  0.65252512  0.07152025     0.05500
C836        C  0.97768339  0.68763524  0.07431898    -0.03000
Br837      Br  0.95614651  0.71074580  0.03071580    -0.02700
H838        H  0.96973318  0.73348262  0.11222273     0.09500
H839        H  0.51339787  0.61039255  0.10447427     0.07500
Br840      Br  0.52654205  0.63311445  0.18638671    -0.03100
C841        C  0.63307437  0.75932249  0.28981343    -0.09800
C842        C  0.65043265  0.75425448  0.25437161     0.06400
C843        C  0.63508591  0.74959829  0.21711405    -0.03500
C844        C  0.60290618  0.74927648  0.21597879    -0.08000
C845        C  0.58563786  0.75289181  0.25160177     0.05500
C846        C  0.60085992  0.75831263  0.28871553    -0.03000
Br847      Br  0.57856103  0.76572973  0.33829214    -0.02700
H848        H  0.64460097  0.76335039  0.31852847     0.09500
H849        H  0.59130350  0.74571684  0.18723611     0.07500
Br850      Br  0.65686143  0.74528945  0.16663895    -0.03100
C851        C  0.88531154  0.78382328  0.25105722    -0.09800
C852        C  0.90064582  0.75058746  0.24822081     0.06400
C853        C  0.88306467  0.71868848  0.24713693    -0.03500
C854        C  0.85099210  0.72043980  0.25008676    -0.08000
C855        C  0.83562270  0.75354696  0.25410754     0.05500
C856        C  0.85315378  0.78560271  0.25403565    -0.03000
Br857      Br  0.83480633  0.83266143  0.25558439    -0.02700
H858        H  0.89844113  0.80862925  0.25140085     0.09500
H859        H  0.83796047  0.69557538  0.24924872     0.07500
Br860      Br  0.90114428  0.67201001  0.23917254    -0.03100
C861        C  0.73107978  0.86247512  0.11397323    -0.09800
C862        C  0.74980891  0.84910148  0.08256758     0.06400
C863        C  0.76677288  0.81719222  0.08886628    -0.03500
C864        C  0.76391423  0.79879676  0.12533038    -0.08000
C865        C  0.74491909  0.81179499  0.15639342     0.05500
C866        C  0.72852030  0.84412099  0.15078184    -0.03000
Br867      Br  0.70086114  0.86311143  0.19096863    -0.02700
H868        H  0.71781409  0.88685552  0.10955640     0.09500
H869        H  0.77717011  0.77438924  0.12974205     0.07500
Br870      Br  0.79594175  0.79825777  0.05049695    -0.03100
C871        C  0.72879219  0.70845019  0.39350767    -0.09800
C872        C  0.74235527  0.69341374  0.35883299     0.06400
C873        C  0.75484958  0.65836671  0.36085398    -0.03500
C874        C  0.75422645  0.63962150  0.39748612    -0.08000
C875        C  0.74123484  0.65501326  0.43243485     0.05500
C876        C  0.72775860  0.68958124  0.42992173    -0.03000
Br877      Br  0.70574030  0.71206006  0.47379606    -0.02700
H878        H  0.71838221  0.73493297  0.39213894     0.09500
H879        H  0.76468410  0.61317274  0.39883057     0.07500
Br880      Br  0.77477314  0.63523102  0.31578151    -0.03100
loop_ 
_geom_bond_atom_site_label_1 
_geom_bond_atom_site_label_2 
_geom_bond_distance 
_geom_bond_site_symmetry_2 
_ccdc_geom_bond_type 
O1            V9   1.896       .  S
O1           C11   1.263       .  A
O2            V9   1.894       .  S
O2           C12   1.264       .  A
O3            V9   1.906       .  S
O3           C13   1.266       .  A
O4            V9   1.904       .  S
O4           C14   1.265       .  A
O5           V10   1.894       .  S
O5           C14   1.263       .  A
O6           V10   1.894       .  S
O6           C13   1.264       .  A
O7           V10   1.892       .  S
O7           C12   1.262       .  A
O8           V10   1.886       .  S
O8           C11   1.262       .  A
V9           V10   2.087       .  T
C11         C425   1.466       .  S
C12         C432   1.473       .  S
C13         C415   1.482       .  S
C14         C402   1.473       .  S
O15          V23   1.902       .  S
O15          C25   1.267       .  A
O16         V463   1.902       .  S
O16         C466   1.267       .  A
O17         V463   1.900       .  S
O17          C27   1.264       .  A
O18          V23   1.900   1_455  S
O18          C28   1.263       .  A
O19          V24   1.900   1_455  S
O19          C28   1.264       .  A
O20         V464   1.900       .  S
O20          C27   1.265       .  A
O21          V24   1.895       .  S
O21          C26   1.262       .  A
O22         V464   1.889       .  S
O22         C465   1.261       .  A
V23         O456   1.902       .  S
V23         O457   1.900       .  S
V23          V24   2.085       .  T
V24         O460   1.900       .  S
V24         O462   1.889       .  S
C25         O462   1.261       .  A
C25         C825   1.482       .  S
C26         O456   1.267       .  A
C26         C832   1.482       .  S
C27         C412   1.481       .  S
C28         C405   1.469       .  S
O29          V37   1.896       .  S
O29          C39   1.265       .  A
O30          V37   1.899       .  S
O30          C40   1.263       .  A
O31          V37   1.900       .  S
O31          C41   1.264       .  A
O32          V37   1.900       .  S
O32          C42   1.264       .  A
O33          V38   1.898       .  S
O33          C42   1.264       .  A
O34          V38   1.901       .  S
O34          C41   1.264       .  A
O35          V38   1.893       .  S
O35          C40   1.265       .  A
O36          V38   1.899       .  S
O36          C39   1.263       .  A
V37          V38   2.085       .  T
C39         C362   1.481       .  S
C40         C372   1.479       .  S
C41         C342   1.476       .  S
C42         C352   1.470       .  S
O43          V51   1.888       .  S
O43          C53   1.261       .  A
O44          V51   1.895       .  S
O44          C54   1.262       .  A
O45          V51   1.907   1_455  S
O45          C55   1.267       .  A
O46         V491   1.905       .  S
O46          C56   1.266       .  A
O47         V492   1.896       .  S
O47          C56   1.262       .  A
O48          V52   1.893   1_455  S
O48          C55   1.262       .  A
O49          V52   1.893   1_455  S
O49          C54   1.264   1_455  A
O50          V52   1.898       .  S
O50          C53   1.265       .  A
V51         O486   1.905       .  S
V51          V52   2.084       .  T
V52         O487   1.896       .  S
C53         C332   1.478       .  S
C54         C325   1.470   1_655  S
C55         C345   1.487       .  S
C56         C355   1.473       .  S
O57          V65   1.891       .  S
O57          C67   1.261       .  A
O58          V65   1.889       .  S
O58          C68   1.262       .  A
O59          V65   1.896       .  S
O59          C69   1.263       .  A
O60          V65   1.896       .  S
O60          C70   1.263       .  A
O61          V66   1.900       .  S
O61          C70   1.265       .  A
O62          V66   1.902       .  S
O62          C69   1.265       .  A
O63          V66   1.898       .  S
O63          C68   1.264       .  A
O64          V66   1.898       .  S
O64          C67   1.265       .  A
V65          V66   2.086       .  T
C67         C302   1.477       .  S
C68         C312   1.472       .  S
C69         C292   1.484       .  S
C70         C282   1.475       .  S
O71          V79   1.905       .  S
O71          C81   1.267       .  A
O72         V519   1.903       .  S
O72          C82   1.265       .  A
O73          V79   1.896       .  S
O73         C523   1.263       .  A
O74         V519   1.895       .  S
O74          C84   1.262       .  A
O75         V520   1.904       .  S
O75         C524   1.266       .  A
O76          V80   1.905       .  S
O76          C83   1.266       .  A
O77          V80   1.894       .  S
O77          C82   1.263       .  A
O78         V520   1.892       .  S
O78          C81   1.262       .  A
V79         O512   1.903   1_455  S
V79         O514   1.895       .  S
V79         V520   2.086       .  T
V80         O515   1.904       .  S
V80         O518   1.892       .  S
V80         V519   2.086       .  T
C81         C285   1.484       .  S
C82         C295   1.474       .  S
C83         O513   1.263       .  A
C83         C265   1.482       .  S
C84         O515   1.266       .  A
C84         C275   1.475       .  S
C85         C305   1.479       .  S
C85          N86   1.352       .  A
C85          N90   1.356   1_556  A
N86          C87   1.353   1_556  A
C87         C255   1.471       .  S
C87          N88   1.358       .  A
N88          C89   1.358       .  A
C89         C422   1.474       .  S
C89          N90   1.357       .  A
C91         C245   1.471       .  S
C91          N92   1.352   1_554  A
C91          N96   1.352       .  A
N92          C93   1.355       .  A
C93         C375   1.482       .  S
C93          N94   1.361       .  A
N94          C95   1.362   1_556  A
C95         C252   1.477       .  S
C95          N96   1.355       .  A
C97         C365   1.479       .  S
C97          N98   1.355       .  A
C97         N102   1.355       .  A
N98          C99   1.359       .  A
C99         C235   1.485       .  S
C99         N100   1.363       .  A
N100        C101   1.362       .  A
C101        C222   1.496       .  S
C101        N102   1.359       .  A
C103        C435   1.476       .  S
C103        N104   1.358       .  A
C103        N108   1.353       .  A
N104        C105   1.360       .  A
C105        C232   1.488       .  S
C105        N106   1.359       .  A
N106        C107   1.358       .  A
C107        C315   1.477       .  S
C107        N108   1.353       .  A
C109        C382   1.487       .  S
C109        N110   1.361       .  A
C109        N554   1.353       .  A
N110        C111   1.361       .  A
C111        C262   1.487       .  S
C111        N552   1.358       .  A
N112        C113   1.358       .  A
N112        C551   1.358       .  A
C113        C212   1.475       .  S
C113        N114   1.355       .  A
N114        C549   1.353       .  A
C115        C322   1.473       .  S
C115        N116   1.357       .  A
C115        N120   1.355       .  A
N116        C117   1.356       .  A
C117        C202   1.481       .  S
C117        N118   1.359       .  A
N118        C119   1.358       .  A
C119        C215   1.478       .  S
C119        N120   1.356       .  A
C121        C335   1.482       .  S
C121        N122   1.355       .  A
C121        N126   1.356       .  A
N122        C123   1.357       .  A
C123        C192   1.478       .  S
C123        N124   1.361   1_556  A
N124        C125   1.359       .  A
C125        C185   1.482       .  S
C125        N126   1.355   1_554  A
C127        C395   1.481       .  S
C127        N132   1.354   1_554  A
C127        N568   1.358       .  A
N128        C129   1.360   1_554  A
N128        C567   1.358       .  A
C129        C195   1.475       .  S
C129        N130   1.361       .  A
N130        C571   1.360       .  A
C131        C272   1.478       .  S
C131        N132   1.354       .  A
C131        N570   1.360       .  A
O133        V141   1.894       .  S
O133        C143   1.264       .  A
O134        V141   1.897       .  S
O134        C144   1.265       .  A
O135        V141   1.900       .  S
O135        C145   1.265       .  A
O136        V141   1.896       .  S
O136        C146   1.264       .  A
O137        V142   1.896       .  S
O137        C146   1.263       .  A
O138        V142   1.902       .  S
O138        C145   1.265       .  A
O139        V142   1.896       .  S
O139        C144   1.263       .  A
O140        V142   1.899       .  S
O140        C143   1.263       .  A
V141        V142   2.085       .  T
C143        C172   1.472       .  S
C144        C162   1.485       .  S
C145        C225   1.489       .  S
C146        C242   1.472       .  S
O147        V155   1.899       .  S
O147        C157   1.264       .  A
O148        V155   1.897       .  S
O148        C158   1.264       .  A
O149        V595   1.897       .  S
O149        C159   1.264       .  A
O150        V155   1.896       .  S
O150        C160   1.263       .  A
O151        V156   1.898       .  S
O151        C160   1.263       .  A
O152        V596   1.895       .  S
O152        C159   1.263       .  A
O153        V156   1.898       .  S
O153        C158   1.264       .  A
O154        V156   1.892       .  S
O154        C157   1.263       .  A
V155        O589   1.897   1_455  S
V155        V156   2.086       .  T
V156        O592   1.895   1_455  S
C157        C182   1.475       .  S
C158        C205   1.478       .  S
C159        C175   1.480       .  S
C160        C165   1.469       .  S
C161        C162   1.409       .  A
C161        C166   1.398       .  A
C161        H168   1.083       .  S
C162        C163   1.418       .  A
C163        C164   1.397       .  A
C163       Br170   1.922       .  S
C164        C165   1.399       .  A
C164        H169   1.084       .  S
C165        C166   1.406       .  A
C166       Br167   1.920       .  S
C171        C172   1.400       .  A
C171        C176   1.395       .  A
C171        H178   1.084       .  S
C172        C173   1.409       .  A
C173        C174   1.399       .  A
C173       Br180   1.921       .  S
C174        C175   1.407       .  A
C174        H179   1.084       .  S
C175        C176   1.414       .  A
C176       Br177   1.921       .  S
C181        C182   1.404       .  A
C181        C186   1.398       .  A
C181        H188   1.084       .  S
C182        C623   1.410   1_455  A
C183        C184   1.397       .  A
C183        C622   1.410       .  A
C183       Br190   1.922       .  S
C184        C625   1.407       .  A
C184        H189   1.083       .  S
C185        C186   1.413   1_655  A
C185        C624   1.407       .  A
C186       Br187   1.919       .  S
C191        C192   1.403   1_454  A
C191        C196   1.396       .  A
C191        H198   1.083       .  S
C192        C633   1.413       .  A
C193        C194   1.401       .  A
C193        C632   1.413       .  A
C193       Br200   1.921       .  S
C194        C635   1.403       .  A
C194        H199   1.084       .  S
C195        C196   1.409   1_656  A
C195        C634   1.403       .  A
C196       Br197   1.920       .  S
C201        C202   1.404       .  A
C201        C206   1.397       .  A
C201        H208   1.081       .  S
C202        C643   1.414   1_455  A
C203        C204   1.399       .  A
C203        C642   1.414       .  A
C203       Br210   1.922       .  S
C204        C645   1.404       .  A
C204        H209   1.083       .  S
C205        C206   1.411       .  A
C205        C644   1.404   1_455  A
C206       Br207   1.922       .  S
C211        C212   1.403       .  A
C211        C216   1.394   1_565  A
C211        H218   1.081       .  S
C212        C653   1.409   1_455  A
C213        C214   1.397   1_565  A
C213        C652   1.409       .  A
C213       Br220   1.921       .  S
C214        C655   1.407       .  A
C214        H219   1.083       .  S
C215        C216   1.412       .  A
C215        C654   1.407   1_455  A
C216       Br217   1.920       .  S
C221        C222   1.409       .  A
C221        C226   1.397       .  A
C221        H228   1.081       .  S
C222        C223   1.416       .  A
C223        C224   1.403       .  A
C223       Br230   1.920       .  S
C224        C225   1.407       .  A
C224        H229   1.083       .  S
C225        C226   1.413       .  A
C226       Br227   1.923       .  S
C231        C232   1.408       .  A
C231        C236   1.399       .  A
C231        H238   1.083       .  S
C232        C233   1.416       .  A
C233        C234   1.398       .  A
C233       Br240   1.923       .  S
C234        C235   1.406       .  A
C234        H239   1.084       .  S
C235        C236   1.411       .  A
C236       Br237   1.920       .  S
C241        C242   1.403       .  A
C241        C246   1.397       .  A
C241        H248   1.083       .  S
C242        C243   1.410       .  A
C243        C244   1.396       .  A
C243       Br250   1.919       .  S
C244        C245   1.403       .  A
C244        H249   1.083       .  S
C245        C246   1.410       .  A
C246       Br247   1.921       .  S
C251        C252   1.403   1_556  A
C251        C256   1.397   1_545  A
C251        H258   1.083       .  S
C252        C253   1.415       .  A
C253        C254   1.395   1_545  A
C253       Br260   1.923       .  S
C254        C255   1.401       .  A
C254        H259   1.084       .  S
C255        C256   1.412   1_554  A
C256       Br257   1.922       .  S
C261        C266   1.397       .  A
C261        C702   1.404   1_655  A
C261        H268   1.083       .  S
C262        C263   1.416       .  A
C262        C701   1.404       .  A
C263        C264   1.403       .  A
C263       Br270   1.921       .  S
C264        C265   1.405       .  A
C264        H269   1.084       .  S
C265        C706   1.412       .  A
C266        C705   1.412   1_655  A
C266       Br267   1.922       .  S
C271        C276   1.399       .  A
C271        C712   1.403       .  A
C271        H278   1.084       .  S
C272        C273   1.414       .  A
C272        C711   1.403       .  A
C273        C274   1.398       .  A
C273       Br280   1.923       .  S
C274        C275   1.401       .  A
C274        H279   1.084       .  S
C275        C716   1.411       .  A
C276        C715   1.411   1_655  A
C276       Br277   1.920       .  S
C281        C282   1.401       .  A
C281        C286   1.398       .  A
C281        H288   1.084       .  S
C282        C283   1.410       .  A
C283        C284   1.399       .  A
C283       Br290   1.921       .  S
C284        C285   1.406       .  A
C284        H289   1.083       .  S
C285        C286   1.417       .  A
C286       Br287   1.922       .  S
C291        C292   1.407       .  A
C291        C296   1.400       .  A
C291        H298   1.083       .  S
C292        C293   1.416       .  A
C293        C294   1.398       .  A
C293       Br300   1.922       .  S
C294        C295   1.400       .  A
C294        H299   1.083       .  S
C295        C296   1.409       .  A
C296       Br297   1.921       .  S
C301        C302   1.402       .  A
C301        C306   1.396       .  A
C301        H308   1.083       .  S
C302        C303   1.413       .  A
C303        C304   1.396       .  A
C303       Br310   1.923       .  S
C304        C305   1.404       .  A
C304        H309   1.083       .  S
C305        C306   1.415       .  A
C306       Br307   1.923       .  S
C311        C312   1.403       .  A
C311        C316   1.395       .  A
C311        H318   1.084       .  S
C312        C313   1.409       .  A
C313        C314   1.397       .  A
C313       Br320   1.922       .  S
C314        C315   1.407       .  A
C314        H319   1.084       .  S
C315        C316   1.410       .  A
C316       Br317   1.920       .  S
C321        C322   1.405   1_655  A
C321        C326   1.398       .  A
C321        H328   1.084       .  S
C322        C763   1.409       .  A
C323        C324   1.394       .  A
C323        C762   1.409       .  A
C323       Br330   1.920       .  S
C324        C765   1.402       .  A
C324        H329   1.084       .  S
C325        C326   1.410   1_455  A
C325        C764   1.402       .  A
C326       Br327   1.921       .  S
C331        C332   1.404       .  A
C331        C336   1.397       .  A
C331        H338   1.083   1_655  S
C332        C773   1.413       .  A
C333        C334   1.394       .  A
C333        C772   1.413       .  A
C333       Br340   1.924       .  S
C334        C775   1.405       .  A
C334        H339   1.083       .  S
C335        C336   1.415       .  A
C335        C774   1.405       .  A
C336       Br337   1.922   1_655  S
C341        C342   1.400       .  A
C341        C346   1.399       .  A
C341        H348   1.084       .  S
C342        C343   1.409       .  A
C343        C344   1.400       .  A
C343       Br350   1.921       .  S
C344        C345   1.407       .  A
C344        H349   1.083       .  S
C345        C346   1.418       .  A
C346       Br347   1.923       .  S
C351        C352   1.401       .  A
C351        C356   1.399       .  A
C351        H358   1.088       .  S
C352        C353   1.409       .  A
C353        C354   1.398       .  A
C353       Br360   1.920       .  S
C354        C355   1.402       .  A
C354        H359   1.088       .  S
C355        C356   1.411       .  A
C356       Br357   1.919       .  S
C361        C362   1.404       .  A
C361        C366   1.396       .  A
C361        H368   1.084       .  S
C362        C363   1.414       .  A
C363        C364   1.401       .  A
C363       Br370   1.921       .  S
C364        C365   1.405       .  A
C364        H369   1.084       .  S
C365        C366   1.411       .  A
C366       Br367   1.920       .  S
C371        C372   1.401       .  A
C371        C376   1.392       .  A
C371        H378   1.084       .  S
C372        C373   1.414       .  A
C373        C374   1.402       .  A
C373       Br380   1.921       .  S
C374        C375   1.406       .  A
C374        H379   1.084       .  S
C375        C376   1.415       .  A
C376       Br377   1.924       .  S
C381        C382   1.405       .  A
C381        C386   1.397       .  A
C381        H388   1.083       .  S
C382        C823   1.418       .  A
C383        C384   1.397       .  A
C383        C822   1.418       .  A
C383       Br390   1.921       .  S
C384        C825   1.402   1_455  A
C384        H389   1.083       .  S
C385        C465   1.482       .  S
C385        C386   1.414       .  A
C385        C824   1.402       .  A
C386       Br387   1.923       .  S
C391        C392   1.403       .  A
C391        C396   1.397       .  A
C391        H398   1.084       .  S
C392        C466   1.482       .  S
C392        C833   1.415       .  A
C393        C394   1.399       .  A
C393        C832   1.415   1_455  A
C393       Br400   1.921       .  S
C394        C835   1.404   1_455  A
C394        H399   1.084       .  S
C395        C396   1.414       .  A
C395        C834   1.404       .  A
C396       Br397   1.923       .  S
C401        C402   1.403       .  A
C401        C406   1.400       .  A
C401        H408   1.084       .  S
C402        C403   1.412       .  A
C403        C404   1.398       .  A
C403       Br410   1.921       .  S
C404        C405   1.400       .  A
C404        H409   1.084       .  S
C405        C406   1.409       .  A
C406       Br407   1.920       .  S
C411        C412   1.406       .  A
C411        C416   1.401       .  A
C411        H418   1.084       .  S
C412        C413   1.410       .  A
C413        C414   1.398       .  A
C413       Br420   1.921       .  S
C414        C415   1.405       .  A
C414        H419   1.084       .  S
C415        C416   1.413       .  A
C416       Br417   1.921       .  S
C421        C422   1.406       .  A
C421        C426   1.399       .  A
C421        H428   1.084       .  S
C422        C423   1.411       .  A
C423        C424   1.391       .  A
C423       Br430   1.922       .  S
C424        C425   1.400       .  A
C424        H429   1.084       .  S
C425        C426   1.409       .  A
C426       Br427   1.921       .  S
C431        C432   1.402       .  A
C431        C436   1.394       .  A
C431        H438   1.084       .  S
C432        C433   1.412       .  A
C433        C434   1.397       .  A
C433       Br440   1.921       .  S
C434        C435   1.404       .  A
C434        H439   1.083       .  S
C435        C436   1.414       .  A
C436       Br437   1.923       .  S
O441        V449   1.896       .  S
O441        C451   1.263       .  A
O442        V449   1.894       .  S
O442        C452   1.264       .  A
O443        V449   1.906       .  S
O443        C453   1.266       .  A
O444        V449   1.904       .  S
O444        C454   1.265       .  A
O445        V450   1.894       .  S
O445        C454   1.263       .  A
O446        V450   1.894       .  S
O446        C453   1.264       .  A
O447        V450   1.892       .  S
O447        C452   1.262       .  A
O448        V450   1.886       .  S
O448        C451   1.262       .  A
V449        V450   2.087       .  T
C451        C865   1.466       .  S
C452        C872   1.473       .  S
C453        C855   1.482       .  S
C454        C842   1.473       .  S
O455        V463   1.902       .  S
O455        C465   1.267       .  A
O457        C467   1.264       .  A
O458        V463   1.900       .  S
O458        C468   1.263       .  A
O459        V464   1.900       .  S
O459        C468   1.264       .  A
O460        C467   1.265       .  A
O461        V464   1.895       .  S
O461        C466   1.262       .  A
V463        V464   2.085       .  T
C467        C852   1.480       .  S
C468        C845   1.469       .  S
O469        V477   1.896       .  S
O469        C479   1.265       .  A
O470        V477   1.899       .  S
O470        C480   1.263       .  A
O471        V477   1.900       .  S
O471        C481   1.264       .  A
O472        V477   1.900       .  S
O472        C482   1.264       .  A
O473        V478   1.898       .  S
O473        C482   1.263       .  A
O474        V478   1.901       .  S
O474        C481   1.264       .  A
O475        V478   1.893       .  S
O475        C480   1.265       .  A
O476        V478   1.899       .  S
O476        C479   1.263       .  A
V477        V478   2.085       .  T
C479        C802   1.481       .  S
C480        C812   1.479       .  S
C481        C782   1.476       .  S
C482        C792   1.470       .  S
O483        V491   1.888       .  S
O483        C493   1.261       .  A
O484        V491   1.895       .  S
O484        C494   1.262       .  A
O485        V491   1.907       .  S
O485        C495   1.267       .  A
O486        C496   1.266       .  A
O487        C496   1.262       .  A
O488        V492   1.893       .  S
O488        C495   1.262       .  A
O489        V492   1.893       .  S
O489        C494   1.264       .  A
O490        V492   1.897       .  S
O490        C493   1.265       .  A
V491        V492   2.084       .  T
C493        C772   1.478       .  S
C494        C765   1.470       .  S
C495        C785   1.487       .  S
C496        C795   1.473       .  S
O497        V505   1.891       .  S
O497        C507   1.261       .  A
O498        V505   1.889       .  S
O498        C508   1.262       .  A
O499        V505   1.896       .  S
O499        C509   1.263       .  A
O500        V505   1.896       .  S
O500        C510   1.263       .  A
O501        V506   1.900       .  S
O501        C510   1.265       .  A
O502        V506   1.902       .  S
O502        C509   1.265       .  A
O503        V506   1.898       .  S
O503        C508   1.264       .  A
O504        V506   1.898       .  S
O504        C507   1.265       .  A
V505        V506   2.086       .  T
C507        C742   1.477       .  S
C508        C752   1.472       .  S
C509        C732   1.484       .  S
C510        C722   1.475       .  S
O511        V519   1.905       .  S
O511        C521   1.267       .  A
O512        C522   1.265       .  A
O513        V519   1.896       .  S
O514        C524   1.262       .  A
O516        V520   1.905       .  S
O516        C523   1.266       .  A
O517        V520   1.894   1_655  S
O517        C522   1.263       .  A
O518        C521   1.262       .  A
C521        C725   1.484       .  S
C522        C735   1.474       .  S
C523        C705   1.482       .  S
C524        C715   1.475       .  S
C525        C745   1.479       .  S
C525        N526   1.352       .  A
C525        N530   1.356   1_556  A
N526        C527   1.353   1_556  A
C527        C695   1.471       .  S
C527        N528   1.358       .  A
N528        C529   1.358       .  A
C529        C862   1.474       .  S
C529        N530   1.357       .  A
C531        C685   1.471       .  S
C531        N532   1.352   1_554  A
C531        N536   1.352       .  A
N532        C533   1.355       .  A
C533        C815   1.482       .  S
C533        N534   1.361       .  A
N534        C535   1.362       .  A
C535        C692   1.477   1_556  S
C535        N536   1.355   1_556  A
C537        C805   1.479       .  S
C537        N538   1.355       .  A
C537        N542   1.355       .  A
N538        C539   1.359       .  A
C539        C675   1.485       .  S
C539        N540   1.363       .  A
N540        C541   1.362       .  A
C541        C662   1.496       .  S
C541        N542   1.359       .  A
C543        C875   1.476       .  S
C543        N544   1.358       .  A
C543        N548   1.353       .  A
N544        C545   1.360       .  A
C545        C672   1.488       .  S
C545        N546   1.359       .  A
N546        C547   1.358       .  A
C547        C755   1.477       .  S
C547        N548   1.353       .  A
C549        C822   1.487       .  S
C549        N550   1.361       .  A
N550        C551   1.361       .  A
C551        C702   1.487       .  S
N552        C553   1.358       .  A
C553        C652   1.475       .  S
C553        N554   1.355       .  A
C555        C762   1.473       .  S
C555        N556   1.357       .  A
C555        N560   1.355       .  A
N556        C557   1.356       .  A
C557        C642   1.481       .  S
C557        N558   1.359       .  A
N558        C559   1.358       .  A
C559        C655   1.478       .  S
C559        N560   1.356       .  A
C561        C775   1.482       .  S
C561        N562   1.355       .  A
C561        N566   1.356       .  A
N562        C563   1.357       .  A
C563        C632   1.478       .  S
C563        N564   1.361   1_556  A
N564        C565   1.359       .  A
C565        C625   1.482       .  S
C565        N566   1.355   1_554  A
C567        C835   1.481       .  S
C567        N572   1.354   1_554  A
N568        C569   1.360   1_554  A
C569        C635   1.475       .  S
C569        N570   1.361       .  A
C571        C712   1.478       .  S
C571        N572   1.354       .  A
O573        V581   1.894       .  S
O573        C583   1.264       .  A
O574        V581   1.897       .  S
O574        C584   1.265       .  A
O575        V581   1.900       .  S
O575        C585   1.265       .  A
O576        V581   1.896       .  S
O576        C586   1.264       .  A
O577        V582   1.896       .  S
O577        C586   1.263       .  A
O578        V582   1.902       .  S
O578        C585   1.265       .  A
O579        V582   1.896       .  S
O579        C584   1.263       .  A
O580        V582   1.899       .  S
O580        C583   1.263       .  A
V581        V582   2.085       .  T
C583        C612   1.472       .  S
C584        C602   1.485       .  S
C585        C665   1.489       .  S
C586        C682   1.472       .  S
O587        V595   1.899       .  S
O587        C597   1.264       .  A
O588        V595   1.897       .  S
O588        C598   1.264       .  A
O589        C599   1.264       .  A
O590        V595   1.896       .  S
O590        C600   1.263       .  A
O591        V596   1.898       .  S
O591        C600   1.263       .  A
O592        C599   1.263       .  A
O593        V596   1.898       .  S
O593        C598   1.264       .  A
O594        V596   1.892       .  S
O594        C597   1.263       .  A
V595        V596   2.086       .  T
C597        C622   1.475       .  S
C598        C645   1.478       .  S
C599        C615   1.480       .  S
C600        C605   1.469       .  S
C601        C602   1.409       .  A
C601        C606   1.398       .  A
C601        H608   1.083       .  S
C602        C603   1.418       .  A
C603        C604   1.397       .  A
C603       Br610   1.922       .  S
C604        C605   1.399       .  A
C604        H609   1.084       .  S
C605        C606   1.406       .  A
C606       Br607   1.920       .  S
C611        C612   1.400       .  A
C611        C616   1.395       .  A
C611        H618   1.084       .  S
C612        C613   1.409       .  A
C613        C614   1.399       .  A
C613       Br620   1.921       .  S
C614        C615   1.407       .  A
C614        H619   1.084       .  S
C615        C616   1.414       .  A
C616       Br617   1.921       .  S
C621        C622   1.404       .  A
C621        C626   1.398       .  A
C621        H628   1.084       .  S
C623        C624   1.397       .  A
C623       Br630   1.922       .  S
C624        H629   1.083       .  S
C625        C626   1.413       .  A
C626       Br627   1.919       .  S
C631        C632   1.403   1_554  A
C631        C636   1.396       .  A
C631        H638   1.083       .  S
C633        C634   1.401       .  A
C633       Br640   1.921       .  S
C634        H639   1.084       .  S
C635        C636   1.409   1_556  A
C636       Br637   1.920       .  S
C641        C642   1.404       .  A
C641        C646   1.397       .  A
C641        H648   1.081       .  S
C643        C644   1.399       .  A
C643       Br650   1.922       .  S
C644        H649   1.083       .  S
C645        C646   1.411       .  A
C646       Br647   1.922       .  S
C651        C652   1.403       .  A
C651        C656   1.394   1_565  A
C651        H658   1.081       .  S
C653        C654   1.397   1_565  A
C653       Br660   1.921       .  S
C654        H659   1.083       .  S
C655        C656   1.412       .  A
C656       Br657   1.920       .  S
C661        C662   1.409       .  A
C661        C666   1.397       .  A
C661        H668   1.081       .  S
C662        C663   1.416       .  A
C663        C664   1.403       .  A
C663       Br670   1.920       .  S
C664        C665   1.407       .  A
C664        H669   1.083       .  S
C665        C666   1.413       .  A
C666       Br667   1.923       .  S
C671        C672   1.408       .  A
C671        C676   1.399       .  A
C671        H678   1.083       .  S
C672        C673   1.416       .  A
C673        C674   1.398       .  A
C673       Br680   1.923       .  S
C674        C675   1.406       .  A
C674        H679   1.084       .  S
C675        C676   1.411       .  A
C676       Br677   1.920       .  S
C681        C682   1.403       .  A
C681        C686   1.397       .  A
C681        H688   1.083       .  S
C682        C683   1.410       .  A
C683        C684   1.396       .  A
C683       Br690   1.919       .  S
C684        C685   1.403       .  A
C684        H689   1.083       .  S
C685        C686   1.410       .  A
C686       Br687   1.921       .  S
C691        C692   1.403   1_556  A
C691        C696   1.397   1_545  A
C691        H698   1.083       .  S
C692        C693   1.415       .  A
C693        C694   1.395   1_545  A
C693       Br700   1.923       .  S
C694        C695   1.401       .  A
C694        H699   1.084       .  S
C695        C696   1.412   1_554  A
C696       Br697   1.922       .  S
C701        C706   1.397       .  A
C701        H708   1.083       .  S
C702        C703   1.416       .  A
C703        C704   1.403       .  A
C703       Br710   1.921       .  S
C704        C705   1.405       .  A
C704        H709   1.084       .  S
C706       Br707   1.922       .  S
C711        C716   1.399       .  A
C711        H718   1.084       .  S
C712        C713   1.414   1_655  A
C713        C714   1.398       .  A
C713       Br720   1.923       .  S
C714        C715   1.401       .  A
C714        H719   1.084       .  S
C716       Br717   1.920       .  S
C721        C722   1.401       .  A
C721        C726   1.398       .  A
C721        H728   1.084       .  S
C722        C723   1.410       .  A
C723        C724   1.399       .  A
C723       Br730   1.921       .  S
C724        C725   1.406       .  A
C724        H729   1.083       .  S
C725        C726   1.417       .  A
C726       Br727   1.922       .  S
C731        C732   1.407       .  A
C731        C736   1.400       .  A
C731        H738   1.083       .  S
C732        C733   1.416       .  A
C733        C734   1.398       .  A
C733       Br740   1.922       .  S
C734        C735   1.400       .  A
C734        H739   1.083       .  S
C735        C736   1.409       .  A
C736       Br737   1.921       .  S
C741        C742   1.402       .  A
C741        C746   1.396       .  A
C741        H748   1.083       .  S
C742        C743   1.413       .  A
C743        C744   1.396       .  A
C743       Br750   1.923       .  S
C744        C745   1.404       .  A
C744        H749   1.083       .  S
C745        C746   1.415       .  A
C746       Br747   1.923       .  S
C751        C752   1.403       .  A
C751        C756   1.395       .  A
C751        H758   1.084       .  S
C752        C753   1.409       .  A
C753        C754   1.397       .  A
C753       Br760   1.922       .  S
C754        C755   1.407       .  A
C754        H759   1.084       .  S
C755        C756   1.410       .  A
C756       Br757   1.920       .  S
C761        C762   1.405       .  A
C761        C766   1.398       .  A
C761        H768   1.084       .  S
C763        C764   1.394       .  A
C763       Br770   1.920       .  S
C764        H769   1.084       .  S
C765        C766   1.410       .  A
C766       Br767   1.921       .  S
C771        C772   1.404       .  A
C771        C776   1.397       .  A
C771        H778   1.083       .  S
C773        C774   1.394       .  A
C773       Br780   1.924       .  S
C774        H779   1.083       .  S
C775        C776   1.415       .  A
C776       Br777   1.922       .  S
C781        C782   1.400       .  A
C781        C786   1.399       .  A
C781        H788   1.084       .  S
C782        C783   1.409       .  A
C783        C784   1.400       .  A
C783       Br790   1.921       .  S
C784        C785   1.407       .  A
C784        H789   1.083       .  S
C785        C786   1.418       .  A
C786       Br787   1.923       .  S
C791        C792   1.401       .  A
C791        C796   1.399       .  A
C791        H798   1.088       .  S
C792        C793   1.409       .  A
C793        C794   1.398       .  A
C793       Br800   1.920       .  S
C794        C795   1.402       .  A
C794        H799   1.088       .  S
C795        C796   1.411       .  A
C796       Br797   1.919       .  S
C801        C802   1.404       .  A
C801        C806   1.396       .  A
C801        H808   1.084       .  S
C802        C803   1.414       .  A
C803        C804   1.401       .  A
C803       Br810   1.921       .  S
C804        C805   1.405       .  A
C804        H809   1.084       .  S
C805        C806   1.411       .  A
C806       Br807   1.920       .  S
C811        C812   1.401       .  A
C811        C816   1.392       .  A
C811        H818   1.084       .  S
C812        C813   1.414       .  A
C813        C814   1.402       .  A
C813       Br820   1.921       .  S
C814        C815   1.406       .  A
C814        H819   1.084       .  S
C815        C816   1.415       .  A
C816       Br817   1.924       .  S
C821        C822   1.405   1_655  A
C821        C826   1.397       .  A
C821        H828   1.083       .  S
C823        C824   1.397       .  A
C823       Br830   1.921       .  S
C824        H829   1.083       .  S
C825        C826   1.415       .  A
C826       Br827   1.923       .  S
C831        C832   1.403       .  A
C831        C836   1.397       .  A
C831        H838   1.084       .  S
C833        C834   1.399       .  A
C833       Br840   1.921       .  S
C834        H839   1.084       .  S
C835        C836   1.414       .  A
C836       Br837   1.923       .  S
C841        C842   1.403       .  A
C841        C846   1.400       .  A
C841        H848   1.084       .  S
C842        C843   1.412       .  A
C843        C844   1.398       .  A
C843       Br850   1.921       .  S
C844        C845   1.400       .  A
C844        H849   1.084       .  S
C845        C846   1.409       .  A
C846       Br847   1.920       .  S
C851        C852   1.405       .  A
C851        C856   1.401       .  A
C851        H858   1.084       .  S
C852        C853   1.410       .  A
C853        C854   1.398       .  A
C853       Br860   1.921       .  S
C854        C855   1.405       .  A
C854        H859   1.084       .  S
C855        C856   1.413       .  A
C856       Br857   1.921       .  S
C861        C862   1.406       .  A
C861        C866   1.399       .  A
C861        H868   1.084       .  S
C862        C863   1.411       .  A
C863        C864   1.391       .  A
C863       Br870   1.922       .  S
C864        C865   1.400       .  A
C864        H869   1.084       .  S
C865        C866   1.409       .  A
C866       Br867   1.921       .  S
C871        C872   1.402       .  A
C871        C876   1.394       .  A
C871        H878   1.084       .  S
C872        C873   1.412       .  A
C873        C874   1.397       .  A
C873       Br880   1.921       .  S
C874        C875   1.404       .  A
C874        H879   1.083       .  S
C875        C876   1.414       .  A
C876       Br877   1.923       .  S
