geometry optimzed in LAMMPS
_audit_creation_date              2020-12-01 
_audit_creation_method            'lammps2cif' 
_symmetry_space_group_name_H-M    'P1' 
_symmetry_Int_Tables_number       1 
_symmetry_cell_setting            triclinic 
loop_ 
_symmetry_equiv_pos_as_xyz 
  x,y,z 
_cell_length_a                    39.5791176 
_cell_length_b                    39.580303031751065 
_cell_length_c                    32.45121187744689 
_cell_angle_alpha                 89.99374222992186 
_cell_angle_beta                  90.00601125929508 
_cell_angle_gamma                 120.34529712023192 
loop_ 
_atom_site_label 
_atom_site_type_symbol 
_atom_site_fract_x 
_atom_site_fract_y 
_atom_site_fract_z 
_atom_site_charge 
O1          O  0.13910241  0.36089763  0.46866700    -0.77900
C2          C  0.12195174  0.24094817  0.45230457     0.83100
O3          O  0.26342034  0.38024756  0.41309659    -0.79000
O4          O  0.17757661  0.26579199  0.32668071    -0.80500
O5          O  0.09139456  0.32215648  0.32671205    -0.80300
O6          O  0.11999432  0.38000744  0.41305595    -0.79000
Zn7        Zn  0.16763492  0.33236527  0.44640017     1.55700
O8          O  0.09133779  0.26577715  0.32648150    -0.80400
Cd9        Cd  0.13991460  0.36008443  0.36347792     1.59700
Cd10       Cd  0.22359769  0.36025119  0.36331227     1.59600
O11         O  0.17784367  0.40860253  0.32671085    -0.80300
O12         O  0.16773475  0.33226404  0.38496479    -1.90800
Cd13       Cd  0.13974615  0.27640243  0.36331176     1.59900
O14         O  0.23422347  0.40865717  0.32647954    -0.80300
O15         O  0.11975356  0.23658246  0.41309619    -0.79000
C16         C  0.25905540  0.37805212  0.45230519     0.83600
C17         C  0.12210554  0.37789692  0.45226899     0.83200
O18         O  0.13899393  0.27513174  0.46863603    -0.77900
C19         C  0.07648379  0.28650114  0.31511556     0.84100
O20         O  0.22487073  0.36100899  0.46863700    -0.78000
C21         C  0.21349992  0.42351207  0.31511403     0.84200
C22         C  0.21333860  0.28665885  0.31528576     0.84500
O23         O  0.23420602  0.32241906  0.32668329    -0.80400
C24         C  0.23109524  0.26890498  0.28804311     0.03700
C25         C  0.20889805  0.22947572  0.27474626    -0.12500
C26         C  0.22600859  0.21321070  0.24933784     0.01200
C27         C  0.26457861  0.23543078  0.23710105    -0.11000
C28         C  0.28679401  0.27400062  0.24933600     0.03700
C29         C  0.27052436  0.29110607  0.27474426    -0.10400
H30         H  0.17858208  0.21144524  0.28402047     0.09300
H31         H  0.27742554  0.22258780  0.21755671     0.06800
H32         H  0.28855253  0.32142340  0.28401735     0.06700
C33         C  0.23130796  0.45899724  0.28763542     0.03700
C34         C  0.27051632  0.47602151  0.27392080    -0.12500
C35         C  0.28694127  0.00936157  0.24826820     0.01200
C36         C  0.26506136  0.02595632  0.23619184    -0.11000
C37         C  0.22662840  0.00977740  0.24888906     0.03700
C38         C  0.20941400  0.47638043  0.27453383    -0.10400
H39         H  0.28828714  0.46362193  0.28309121     0.09300
H40         H  0.27804901  0.05166983  0.21647924     0.06800
H41         H  0.17924028  0.46418381  0.28412803     0.06700
C42         C  0.04099997  0.26869579  0.28763414     0.03700
C43         C  0.02397633  0.22948938  0.27391752    -0.12500
C44         C  0.49064061  0.21306820  0.24825739     0.01200
C45         C  0.47404956  0.23495034  0.23617542    -0.11000
C46         C  0.49022668  0.27338089  0.24887768     0.03700
C47         C  0.02361930  0.29059082  0.27452988    -0.10400
H48         H  0.03637270  0.21171875  0.28309106     0.09300
H49         H  0.44834024  0.22196624  0.21645746     0.06800
H50         H  0.03581490  0.32076294  0.28412764     0.06700
C51         C  0.29471399  0.39571875  0.47923813     0.80800
N52         N  0.33127851  0.41376987  0.46182265    -0.77500
C53         C  0.36398904  0.42983521  0.48603446     0.83200
N54         N  0.36010324  0.42788682  0.52725566    -0.77500
C55         C  0.32441229  0.41029167  0.54517045     0.83300
N56         N  0.29141115  0.39405623  0.52136141    -0.79200
C57         C  0.10431138  0.39569786  0.47910042     0.80800
N58         N  0.08612371  0.41388505  0.46159973    -0.77500
C59         C  0.06982663  0.43019267  0.48576126     0.83200
N60         N  0.07174296  0.42828840  0.52697584    -0.77500
C61         C  0.08947638  0.41055492  0.54495938     0.83300
N62         N  0.10591207  0.39410695  0.52123334    -0.79200
O63         O  0.45638398  0.04363350  0.27554136    -0.77900
C64         C  0.40415190  0.46843757  0.17554025     0.83100
O65         O  0.02396031  0.11890399  0.15567364    -0.79000
O66         O  0.38685754  0.05588188  0.10799425    -0.80500
O67         O  0.35335794  0.05665422  0.25439732    -0.80300
O68         O  0.42842237  0.07159713  0.30812677    -0.79000
Zn69       Zn  0.45395815  0.04605535  0.21726901     1.55700
O70         O  0.33389515  0.01597812  0.19985357    -0.80400
Cd71       Cd  0.41340564  0.08660576  0.25194445     1.59700
Cd72       Cd  0.46939033  0.11663041  0.16544607     1.59600
O73         O  0.44334988  0.14665216  0.25439050    -0.80300
O74         O  0.42905831  0.07095283  0.19903729    -1.90800
Cd75       Cd  0.38337823  0.03062101  0.16544783     1.59900
O76         O  0.48402762  0.16611375  0.19984654    -0.80300
O77         O  0.38110655  0.47605486  0.15567562    -0.79000
C78         C  0.03157736  0.09585789  0.17553634     0.83600
C79         C  0.44681423  0.05320530  0.30865451     0.83200
O80         O  0.43017161  0.49395428  0.19845612    -0.77900
C81         C  0.32711636  0.02800367  0.23364593     0.84100
O82         O  0.00605949  0.06983864  0.19845195    -0.78000
C83         C  0.47199924  0.17289346  0.23363679     0.84200
C84         C  0.41312140  0.08688581  0.08994262     0.84500
O85         O  0.44412734  0.11314734  0.10799342    -0.80400
O86         O  0.00577890  0.43198507  0.19879983    -0.77900
C87         C  0.40413479  0.43128679  0.17551940     0.83100
O88         O  0.42844955  0.35247009  0.30839809    -0.79000
O89         O  0.33386852  0.31380564  0.20056602    -0.80500
O90         O  0.44359756  0.32637183  0.10832157    -0.80300
O91         O  0.02350662  0.40066543  0.15626905    -0.79000
Zn92       Zn  0.45361374  0.40360646  0.21744907     1.55700
O93         O  0.38651167  0.32616641  0.10826578    -0.80400
Cd94       Cd  0.46880150  0.34814269  0.16588484     1.59700
Cd95       Cd  0.41306327  0.32217759  0.25237951     1.59600
O96         O  0.48332484  0.31341579  0.20039107    -0.80300
O97         O  0.42869072  0.35352739  0.19935901    -1.90800
Cd98       Cd  0.38323435  0.34817922  0.16565610     1.59900
O99         O  0.44283999  0.29206559  0.25508222    -0.80300
O100        O  0.38116396  0.40048146  0.15551894    -0.79000
C101        C  0.44655948  0.38942778  0.30883163     0.83600
C102        C  0.03126531  0.43145817  0.17607575     0.83200
O103        O  0.43004562  0.43191970  0.19851830    -0.77900
C104        C  0.41270567  0.32157249  0.09022169     0.84100
O105        O  0.45592518  0.40861068  0.27568461    -0.78000
C106        C  0.47145700  0.29467415  0.23430740     0.84200
C107        C  0.32698136  0.29532768  0.23464025     0.84500
O108        O  0.35297489  0.29263763  0.25529722    -0.80400
O109        O  0.06809595  0.06996510  0.19851620    -0.77900
C110        C  0.06855591  0.46874715  0.17607591     0.83100
O111        O  0.14754727  0.07155987  0.30839764    -0.79000
O112        O  0.18659445  0.01667936  0.20040125    -0.80500
O113        O  0.17385680  0.11349378  0.10826522    -0.80300
O114        O  0.09953553  0.11884205  0.15551306    -0.79000
Zn115      Zn  0.09640954  0.04639731  0.21744819     1.55700
O116        O  0.17364953  0.05640870  0.10832309    -0.80400
Cd117      Cd  0.15183946  0.11677139  0.16565379     1.59700
Cd118      Cd  0.17784079  0.08694640  0.25238018     1.59600
O119        O  0.18621023  0.16613572  0.20056544    -0.80300
O120        O  0.14649041  0.07131763  0.19935925    -1.90800
Cd121      Cd  0.15187435  0.03120653  0.16588741     1.59900
O122        O  0.20737811  0.14703306  0.25529966    -0.80300
O123        O  0.09934967  0.47650461  0.15626985    -0.79000
C124        C  0.11058870  0.05345209  0.30883073     0.83600
C125        C  0.06872917  0.09587401  0.17551511     0.83200
O126        O  0.06802934  0.49423328  0.19879956    -0.77900
C127        C  0.17845088  0.08730016  0.09022211     0.84100
O128        O  0.09140538  0.04408747  0.27568372    -0.78000
C129        C  0.20468606  0.17302420  0.23464156     0.84200
C130        C  0.20533743  0.02854858  0.23431678     0.84500
O131        O  0.20795251  0.05717021  0.25508638    -0.80400
O132        O  0.47666665  0.02335044  0.33830236    -0.77900
C133        C  0.08651967  0.04147426  0.34582193     0.83100
O134        O  0.45238506  0.40108108  0.38262187    -0.79000
O135        O  0.07028146  0.48697571  0.46173213    -0.80500
O136        O  0.01338196  0.07943845  0.46176459    -0.80300
O137        O  0.45261838  0.04740255  0.38250564    -0.79000
Zn138      Zn  0.00121324  0.49880135  0.36214781     1.55700
O139        O  0.07044938  0.07963317  0.46192928    -0.80400
Cd140      Cd  0.47250350  0.02751329  0.43238738     1.59700
Cd141      Cd  0.47232023  0.44087083  0.43257108     1.59600
O142        O  0.42057398  0.48663610  0.46176191    -0.80300
O143        O  0.00130181  0.49871439  0.41800019    -1.90800
Cd144      Cd  0.05914717  0.02769438  0.43257027     1.59900
O145        O  0.42037783  0.42956977  0.46192727    -0.80300
O146        O  0.09893674  0.04762911  0.38262043    -0.79000
C147        C  0.45853835  0.41349677  0.34582287     0.83600
C148        C  0.45878114  0.04123867  0.34569900     0.83200
O149        O  0.05056338  0.02355462  0.33839226    -0.77900
C150        C  0.05029025  0.09623757  0.46861853     0.84100
O151        O  0.47645771  0.44945197  0.33839249    -0.78000
C152        C  0.40377293  0.44972859  0.46861534     0.84200
C153        C  0.05000672  0.45001119  0.46838404     0.84500
O154        O  0.01304078  0.42973727  0.46173340    -0.80400
C155        C  0.10429148  0.20529193  0.47923814     0.80800
N156        N  0.08624136  0.16872831  0.46182396    -0.77500
C157        C  0.07018458  0.13601979  0.48603687     0.83200
N158        N  0.07214074  0.13990656  0.52725786    -0.77500
C159        C  0.08973462  0.17559703  0.54517099     0.83300
N160        N  0.10596050  0.20859622  0.52136101    -0.79200
O161        O  0.02593813  0.47408237  0.83859591    -0.77900
C162        C  0.41603625  0.45588393  0.84618873     0.83100
O163        O  0.05032812  0.09637249  0.88299752    -0.79000
O164        O  0.43233901  0.01043999  0.96197672    -0.80500
O165        O  0.48924042  0.41792897  0.96199145    -0.80300
O166        O  0.04998820  0.45002696  0.88281171    -0.79000
Zn167      Zn  0.00138279  0.49863850  0.86246610     1.55700
O168        O  0.43219217  0.41777156  0.96226061    -0.80400
Cd169      Cd  0.03012054  0.46989859  0.93269747     1.59700
Cd170      Cd  0.03031813  0.05653128  0.93292139     1.59600
O171        O  0.08209426  0.01077633  0.96198953    -0.80300
O172        O  0.00132361  0.49869634  0.91832493    -1.90800
Cd173      Cd  0.44348677  0.46970441  0.93292056     1.59900
O174        O  0.08225417  0.06782398  0.96225828    -0.80300
O175        O  0.40364591  0.44969469  0.88299625    -0.79000
C176        C  0.04413848  0.08398345  0.84618968     0.83600
C177        C  0.04382589  0.45619143  0.84600329     0.83200
O178        O  0.45199336  0.47386311  0.83874415    -0.77900
C179        C  0.45233420  0.40113221  0.96884600     0.84100
O180        O  0.02615920  0.04802751  0.83874483    -0.78000
C181        C  0.09889326  0.04768167  0.96884328     0.84200
C182        C  0.45260658  0.04741294  0.96856676     0.84500
O183        O  0.48958120  0.06767904  0.96197851    -0.80400
O184        O  0.04623345  0.45378550  0.77585286    -0.77900
C185        C  0.09842109  0.02895507  0.67586272     0.83100
O186        O  0.47868088  0.37859081  0.65594029    -0.79000
O187        O  0.11566397  0.44162415  0.60808320    -0.80500
O188        O  0.14924003  0.44076668  0.75459095    -0.80300
O189        O  0.07419257  0.42582501  0.80844614    -0.79000
Zn190      Zn  0.04866570  0.45135654  0.71759445     1.55700
O191        O  0.16866879  0.48136844  0.69996983    -0.80400
Cd192      Cd  0.08919364  0.41083226  0.75222164     1.59700
Cd193      Cd  0.03324011  0.38085655  0.66562211     1.59600
O194        O  0.05926689  0.35078712  0.75458454    -0.80300
O195        O  0.07355006  0.42647623  0.69928492    -1.90800
Cd196      Cd  0.11917270  0.46678697  0.66562390     1.58300
O197        O  0.01866426  0.33136028  0.69996322    -0.80300
O198        O  0.12143529  0.02134182  0.65594258    -0.79000
C199        C  0.47106633  0.40160417  0.67585933     0.83600
C200        C  0.05579974  0.44421772  0.80897012     0.83200
O201        O  0.07243199  0.00344380  0.69880486    -0.77900
C202        C  0.17547012  0.46936405  0.73376954     0.84100
O203        O  0.49657775  0.42759219  0.69880199    -0.78000
C204        C  0.03067083  0.32455767  0.73376103     0.84200
C205        C  0.08939544  0.41063695  0.59001164     0.84500
O206        O  0.05840641  0.38437008  0.60808258    -0.80400
O207        O  0.49687114  0.06540701  0.69923723    -0.77900
C208        C  0.09843651  0.06609346  0.67585049     0.83100
O209        O  0.07426590  0.14503262  0.80872388    -0.79000
O210        O  0.16867003  0.18356047  0.70060124    -0.80500
O211        O  0.05884411  0.17076083  0.60836229    -0.80300
O212        O  0.47912933  0.09665076  0.65658860    -0.79000
Zn213      Zn  0.04904478  0.09382471  0.71782793     1.55700
O214        O  0.11595153  0.17103325  0.60830701    -0.80400
Cd215      Cd  0.03378944  0.14917821  0.66605151     1.59700
Cd216      Cd  0.08956117  0.17523597  0.75259281     1.59600
O217        O  0.01929995  0.18397378  0.70046681    -0.80300
O218        O  0.07390364  0.14385358  0.69958659    -1.90800
Cd219      Cd  0.11926773  0.14913828  0.66577884     1.59900
O220        O  0.05976100  0.20533080  0.75518988    -0.80300
O221        O  0.12131341  0.09684107  0.65572209    -0.79000
C222        C  0.05614464  0.10807158  0.80919366     0.83600
C223        C  0.47138761  0.06590420  0.67647563     0.83200
O224        O  0.07260220  0.06549818  0.69893955    -0.77900
C225        C  0.08972601  0.17556470  0.59023972     0.84100
O226        O  0.04676958  0.08888341  0.77605777    -0.78000
C227        C  0.03116653  0.20273471  0.73437220     0.84200
C228        C  0.17561179  0.20209897  0.73463862     0.84500
O229        O  0.14965535  0.20481473  0.75533521    -0.80400
O230        O  0.43452116  0.42742095  0.69893751    -0.77900
C231        C  0.43411566  0.02863342  0.67647539     0.83100
O232        O  0.35498597  0.42575888  0.80872411    -0.79000
O233        O  0.31605032  0.48072926  0.70047648    -0.80500
O234        O  0.32897933  0.38407674  0.60830668    -0.80300
O235        O  0.40317794  0.37871435  0.65571693    -0.79000
Zn236      Zn  0.40619399  0.45097759  0.71782701     1.55700
O237        O  0.32925185  0.44118254  0.60836333    -0.80400
Cd238      Cd  0.35087867  0.38076048  0.66577694     1.59700
Cd239      Cd  0.32478110  0.41046366  0.75259475     1.59600
O240        O  0.31645843  0.33136009  0.70060197    -0.80300
O241        O  0.35616338  0.42612150  0.69958694    -1.90800
Cd242      Cd  0.35083888  0.46623565  0.66605338     1.59900
O243        O  0.29520395  0.35037116  0.75533885    -0.80300
O244        O  0.40336828  0.02089283  0.65658881    -0.79000
C245        C  0.39194790  0.44387817  0.80919310     0.83600
C246        C  0.43392625  0.40158868  0.67584680     0.83200
O247        O  0.43461263  0.00314999  0.69923636    -0.77900
C248        C  0.32444659  0.41030122  0.59024003     0.84100
O249        O  0.41113632  0.45325200  0.77605694    -0.78000
C250        C  0.29792141  0.32441705  0.73464104     0.84200
C251        C  0.29728946  0.46886283  0.73438227     0.84500
O252        O  0.29468781  0.44026476  0.75519612    -0.80400
C253        C  0.20797600  0.10171894  0.97919164     0.80800
N254        N  0.21136945  0.10346223  0.02130404    -0.77500
C255        C  0.17841977  0.08727609  0.04517593     0.83200
N256        N  0.14269454  0.06964128  0.02734789    -0.77500
C257        C  0.13871734  0.06759790  0.98614454     0.83300
N258        N  0.17137411  0.08362254  0.96185370    -0.79200
C259        C  0.39830459  0.29205358  0.97919125     0.80800
N260        N  0.41640028  0.32865478  0.96185452    -0.77500
C261        C  0.43241600  0.36130937  0.98614639     0.83200
N262        N  0.43036452  0.35733082  0.02734953    -0.77500
C263        C  0.41273073  0.32160591  0.04517610     0.83300
N264        N  0.39655430  0.28865841  0.02130327    -0.79200
C265        C  0.39829214  0.10173572  0.97900635     0.80800
N266        N  0.41649458  0.08353335  0.96158008    -0.77500
C267        C  0.43276978  0.06724869  0.98582130     0.83200
N268        N  0.43081680  0.06919163  0.02701866    -0.77500
C269        C  0.41306952  0.08693884  0.04491513     0.83300
N270        N  0.39665523  0.10336414  0.02112700    -0.79200
O271        O  0.36351588  0.13652049  0.96850977    -0.77900
C272        C  0.38066507  0.25644406  0.95220712     0.83100
O273        O  0.23918351  0.11716232  0.91300520    -0.79000
O274        O  0.32503804  0.23162939  0.82658598    -0.80500
O275        O  0.41120015  0.17525562  0.82663654    -0.80300
O276        O  0.38263361  0.11740013  0.91292831    -0.79000
Zn277      Zn  0.33499031  0.16504516  0.94626170     1.55700
O278        O  0.41126942  0.23164253  0.82641380    -0.80400
Cd279      Cd  0.36269732  0.13733918  0.86338269     1.59700
Cd280      Cd  0.27900521  0.13716888  0.86322451     1.59600
O281        O  0.32478055  0.08883824  0.82663527    -0.80300
O282        O  0.33487696  0.16515977  0.88485177    -1.90800
Cd283      Cd  0.36286823  0.22103025  0.86322370     1.59900
O284        O  0.26839299  0.08877038  0.82641265    -0.80300
O285        O  0.38287059  0.26084965  0.91300434    -0.79000
C286        C  0.24358805  0.11936523  0.95220811     0.83600
C287        C  0.38051419  0.11951957  0.95213475     0.83200
O288        O  0.36362198  0.22224746  0.96850614    -0.77900
C289        C  0.42611697  0.21091383  0.81505409     0.84100
O290        O  0.27778556  0.13640972  0.96850731    -0.78000
C291        C  0.28912146  0.07392237  0.81505295     0.84200
C292        C  0.28927709  0.21075897  0.81518863     0.84500
O293        O  0.26840667  0.17499970  0.82658882    -0.80400
C294        C  0.27131431  0.03842856  0.78760881     0.03700
C295        C  0.23209273  0.02137273  0.77394426    -0.12500
C296        C  0.21565428  0.48800509  0.74834563     0.01200
C297        C  0.23753273  0.47140884  0.73627209    -0.11000
C298        C  0.27598837  0.48763088  0.74891664     0.03700
C299        C  0.29321579  0.02105889  0.77450814    -0.10400
H300        H  0.21432121  0.03376726  0.78311261     0.09300
H301        H  0.22452988  0.44566844  0.71660270     0.06800
H302        H  0.32340214  0.03328349  0.78407037     0.06700
C303        C  0.46160980  0.22871866  0.78760724     0.03700
C304        C  0.47866627  0.26793862  0.77394126    -0.12500
C305        C  0.01203009  0.28437377  0.74833585     0.01200
C306        C  0.02862258  0.26249290  0.73625598    -0.11000
C307        C  0.01240053  0.22403871  0.74890483     0.03700
C308        C  0.47897642  0.20681576  0.77450320    -0.10400
H309        H  0.46627433  0.28571176  0.78311372     0.09300
H310        H  0.05435717  0.27549139  0.71658412     0.06800
H311        H  0.46675136  0.17662965  0.78406818     0.06700
C312        C  0.27152301  0.22851027  0.78794426     0.03700
C313        C  0.23209394  0.20631276  0.77465490    -0.12500
C314        C  0.21581475  0.22342732  0.74927180     0.01200
C315        C  0.23802214  0.26200285  0.73704495    -0.11000
C316        C  0.27659730  0.28421490  0.74927464     0.03700
C317        C  0.29371622  0.26793983  0.77465788    -0.10400
H318        H  0.21406797  0.17599536  0.78392882     0.09300
H319        H  0.22516373  0.27485790  0.71752813     0.06800
H320        H  0.32403312  0.28596898  0.78393403     0.06700
O321        O  0.13910242  0.86089765  0.46866690    -0.77900
C322        C  0.12195183  0.74094815  0.45230457     0.83100
O323        O  0.26342031  0.88024754  0.41309653    -0.79000
O324        O  0.17757663  0.76579205  0.32668073    -0.80500
O325        O  0.09139464  0.82215647  0.32671202    -0.80300
O326        O  0.11999433  0.88000746  0.41305588    -0.79000
Zn327      Zn  0.16763497  0.83236527  0.44640018     1.55700
O328        O  0.09133774  0.76577709  0.32648145    -0.80400
Cd329      Cd  0.13991466  0.86008444  0.36347793     1.59700
Cd330      Cd  0.22359761  0.86025119  0.36331227     1.59600
O331        O  0.17784370  0.90860251  0.32671087    -0.80300
O332        O  0.16773464  0.83226400  0.38496485    -1.90800
Cd333      Cd  0.13974609  0.77640243  0.36331177     1.59900
O334        O  0.23422352  0.90865722  0.32647950    -0.80300
O335        O  0.11975355  0.73658243  0.41309619    -0.79000
C336        C  0.25905543  0.87805211  0.45230516     0.83600
C337        C  0.12210542  0.87789682  0.45226892     0.83200
O338        O  0.13899402  0.77513172  0.46863604    -0.77900
C339        C  0.07648381  0.78650113  0.31511550     0.84100
O340        O  0.22487079  0.86100900  0.46863699    -0.78000
C341        C  0.21349997  0.92351208  0.31511402     0.84200
C342        C  0.21333864  0.78665877  0.31528587     0.84500
O343        O  0.23420586  0.82241894  0.32668323    -0.80400
C344        C  0.23109517  0.76890480  0.28804310     0.03700
C345        C  0.20889803  0.72947563  0.27474625    -0.12500
C346        C  0.22600864  0.71321058  0.24933775     0.01200
C347        C  0.26457858  0.73543078  0.23710109    -0.11000
C348        C  0.28679403  0.77400040  0.24933596     0.03700
C349        C  0.27052457  0.79110632  0.27474435    -0.10400
H350        H  0.17858188  0.71144505  0.28402047     0.09300
H351        H  0.27742626  0.72258708  0.21755583     0.06800
H352        H  0.28855140  0.82142099  0.28401690     0.06700
C353        C  0.23130787  0.95899721  0.28763544     0.03700
C354        C  0.27051632  0.97602157  0.27392078    -0.12500
C355        C  0.28694119  0.50936152  0.24826813     0.01200
C356        C  0.26506122  0.52595633  0.23619182    -0.11000
C357        C  0.22662840  0.50977746  0.24888902     0.03700
C358        C  0.20941429  0.97638050  0.27453378    -0.10400
H359        H  0.28828716  0.96362191  0.28309125     0.09300
H360        H  0.27804886  0.55166982  0.21647926     0.06800
H361        H  0.17923825  0.96418294  0.28412873     0.06700
C362        C  0.04099997  0.76869579  0.28763407     0.03700
C363        C  0.02397630  0.72948939  0.27391746    -0.12500
C364        C  0.49064057  0.71306816  0.24825729     0.01200
C365        C  0.47404969  0.73495037  0.23617561    -0.11000
C366        C  0.49022667  0.77338085  0.24887766     0.03700
C367        C  0.02361934  0.79059082  0.27452982    -0.10400
H368        H  0.03637279  0.71171860  0.28309096     0.09300
H369        H  0.44833892  0.72196560  0.21645687     0.06800
H370        H  0.03581501  0.82076300  0.28412756     0.06700
C371        C  0.29471405  0.89571878  0.47923811     0.80800
N372        N  0.33127852  0.91376985  0.46182264    -0.77500
C373        C  0.36398904  0.92983525  0.48603446     0.83200
N374        N  0.36010325  0.92788680  0.52725568    -0.77500
C375        C  0.32441235  0.91029171  0.54517046     0.83300
N376        N  0.29141127  0.89405628  0.52136140    -0.79200
C377        C  0.10431123  0.89569773  0.47910040     0.80800
N378        N  0.08612375  0.91388509  0.46159974    -0.77500
C379        C  0.06982668  0.93019267  0.48576131     0.83200
N380        N  0.07174293  0.92828834  0.52697588    -0.77500
C381        C  0.08947638  0.91055495  0.54495939     0.83300
N382        N  0.10591194  0.89410688  0.52123332    -0.79200
O383        O  0.45638400  0.54363350  0.27554134    -0.77900
C384        C  0.40415181  0.96843757  0.17554028     0.83100
O385        O  0.02396032  0.61890402  0.15567358    -0.79000
O386        O  0.38685745  0.55588183  0.10799429    -0.80500
O387        O  0.35335806  0.55665420  0.25439734    -0.80300
O388        O  0.42842246  0.57159715  0.30812678    -0.79000
Zn389      Zn  0.45395809  0.54605534  0.21726901     1.55700
O390        O  0.33389516  0.51597812  0.19985345    -0.80400
Cd391      Cd  0.41340570  0.58660575  0.25194446     1.59700
Cd392      Cd  0.46939038  0.61663043  0.16544606     1.59600
O393        O  0.44334991  0.64665213  0.25439050    -0.80300
O394        O  0.42905830  0.57095288  0.19903727    -1.90800
Cd395      Cd  0.38337826  0.53062101  0.16544784     1.59900
O396        O  0.48402770  0.66611379  0.19984657    -0.80300
O397        O  0.38110650  0.97605491  0.15567553    -0.79000
C398        C  0.03157738  0.59585793  0.17553632     0.83600
C399        C  0.44681433  0.55320534  0.30865452     0.83200
O400        O  0.43017164  0.99395425  0.19845615    -0.77900
C401        C  0.32711641  0.52800362  0.23364592     0.84100
O402        O  0.00605950  0.56983872  0.19845194    -0.78000
C403        C  0.47199924  0.67289347  0.23363677     0.84200
C404        C  0.41312130  0.58688578  0.08994265     0.84500
O405        O  0.44412726  0.61314730  0.10799344    -0.80400
O406        O  0.00577877  0.93198502  0.19879991    -0.77900
C407        C  0.40413480  0.93128682  0.17551936     0.83100
O408        O  0.42844954  0.85247007  0.30839809    -0.79000
O409        O  0.33386864  0.81380573  0.20056608    -0.80500
O410        O  0.44359746  0.82637185  0.10832156    -0.80300
O411        O  0.02350666  0.90066548  0.15626897    -0.79000
Zn412      Zn  0.45361363  0.90360647  0.21744907     1.55700
O413        O  0.38651154  0.82616640  0.10826579    -0.80400
Cd414      Cd  0.46880154  0.84814269  0.16588482     1.59700
Cd415      Cd  0.41306318  0.82217759  0.25237951     1.59600
O416        O  0.48332490  0.81341581  0.20039108    -0.80300
O417        O  0.42869084  0.85352740  0.19935900    -1.90800
Cd418      Cd  0.38323438  0.84817925  0.16565611     1.59900
O419        O  0.44283995  0.79206570  0.25508217    -0.80300
O420        O  0.38116396  0.90048142  0.15551907    -0.79000
C421        C  0.44655947  0.88942777  0.30883163     0.83600
C422        C  0.03126521  0.93145818  0.17607573     0.83200
O423        O  0.43004557  0.93191973  0.19851826    -0.77900
C424        C  0.41270554  0.82157250  0.09022169     0.84100
O425        O  0.45592495  0.90861064  0.27568461    -0.78000
C426        C  0.47145701  0.79467421  0.23430743     0.84200
C427        C  0.32698143  0.79532765  0.23464033     0.84500
O428        O  0.35297489  0.79263751  0.25529741    -0.80400
O429        O  0.06809600  0.56996508  0.19851623    -0.77900
C430        C  0.06855588  0.96874712  0.17607592     0.83100
O431        O  0.14754727  0.57155991  0.30839759    -0.79000
O432        O  0.18659448  0.51667930  0.20040131    -0.80500
O433        O  0.17385676  0.61349373  0.10826519    -0.80300
O434        O  0.09953561  0.61884205  0.15551309    -0.79000
Zn435      Zn  0.09640949  0.54639732  0.21744818     1.55700
O436        O  0.17364968  0.55640882  0.10832313    -0.80400
Cd437      Cd  0.15183952  0.61677140  0.16565379     1.59700
Cd438      Cd  0.17784085  0.58694642  0.25238018     1.59600
O439        O  0.18621028  0.66613572  0.20056549    -0.80300
O440        O  0.14649035  0.57131761  0.19935927    -1.90800
Cd441      Cd  0.15187440  0.53120654  0.16588740     1.59900
O442        O  0.20737816  0.64703303  0.25529970    -0.80300
O443        O  0.09934964  0.97650460  0.15626990    -0.79000
C444        C  0.11058865  0.55345210  0.30883064     0.83600
C445        C  0.06872923  0.59587401  0.17551512     0.83200
O446        O  0.06802940  0.99423331  0.19879947    -0.77900
C447        C  0.17845082  0.58730014  0.09022206     0.84100
O448        O  0.09140524  0.54408738  0.27568360    -0.78000
C449        C  0.20468623  0.67302420  0.23464151     0.84200
C450        C  0.20533745  0.52854856  0.23431681     0.84500
O451        O  0.20795255  0.55717015  0.25508644    -0.80400
O452        O  0.47666667  0.52335042  0.33830231    -0.77900
C453        C  0.08651962  0.54147427  0.34582189     0.83100
O454        O  0.45238520  0.90108110  0.38262186    -0.79000
O455        O  0.07028148  0.98697575  0.46173215    -0.80500
O456        O  0.01338175  0.57943831  0.46176461    -0.80300
O457        O  0.45261844  0.54740247  0.38250567    -0.79000
Zn458      Zn  0.00121327  0.99880133  0.36214781     1.55700
O459        O  0.07044923  0.57963317  0.46192931    -0.80400
Cd460      Cd  0.47250348  0.52751312  0.43238739     1.59700
Cd461      Cd  0.47232030  0.94087084  0.43257107     1.59600
O462        O  0.42057401  0.98663618  0.46176197    -0.80300
O463        O  0.00130181  0.99871443  0.41800016    -1.90800
Cd464      Cd  0.05914720  0.52769437  0.43257026     1.59900
O465        O  0.42037793  0.92956980  0.46192719    -0.80300
O466        O  0.09893665  0.54762901  0.38262043    -0.79000
C467        C  0.45853825  0.91349683  0.34582287     0.83600
C468        C  0.45878122  0.54123869  0.34569900     0.83200
O469        O  0.05056335  0.52355466  0.33839219    -0.77900
C470        C  0.05029008  0.59623754  0.46861846     0.84100
O471        O  0.47645770  0.94945205  0.33839251    -0.78000
C472        C  0.40377299  0.94972863  0.46861532     0.84200
C473        C  0.05000683  0.95001123  0.46838405     0.84500
O474        O  0.01304090  0.92973731  0.46173346    -0.80400
C475        C  0.10429160  0.70529194  0.47923815     0.80800
N476        N  0.08624136  0.66872833  0.46182397    -0.77500
C477        C  0.07018457  0.63601976  0.48603685     0.83200
N478        N  0.07214064  0.63990645  0.52725787    -0.77500
C479        C  0.08973461  0.67559698  0.54517101     0.83300
N480        N  0.10596055  0.70859617  0.52136100    -0.79200
O481        O  0.02593818  0.97408238  0.83859590    -0.77900
C482        C  0.41603621  0.95588401  0.84618877     0.83100
O483        O  0.05032810  0.59637258  0.88299740    -0.79000
O484        O  0.43233901  0.51043999  0.96197663    -0.80500
O485        O  0.48924047  0.91792894  0.96199146    -0.80300
O486        O  0.04998827  0.95002698  0.88281170    -0.79000
Zn487      Zn  0.00138288  0.99863854  0.86246610     1.55700
O488        O  0.43219226  0.91777160  0.96226060    -0.80400
Cd489      Cd  0.03012061  0.96989859  0.93269747     1.59700
Cd490      Cd  0.03031804  0.55653128  0.93292122     1.59600
O491        O  0.08209415  0.51077632  0.96198945    -0.80300
O492        O  0.00132372  0.99869638  0.91832498    -1.90800
Cd493      Cd  0.44348685  0.96970443  0.93292054     1.59900
O494        O  0.08225403  0.56782390  0.96225820    -0.80300
O495        O  0.40364592  0.94969470  0.88299630    -0.79000
C496        C  0.04413863  0.58398343  0.84618963     0.83600
C497        C  0.04382595  0.95619142  0.84600328     0.83200
O498        O  0.45199333  0.97386306  0.83874421    -0.77900
C499        C  0.45233426  0.90113221  0.96884599     0.84100
O500        O  0.02615910  0.54802746  0.83874489    -0.78000
C501        C  0.09889312  0.54768163  0.96884331     0.84200
C502        C  0.45260661  0.54741292  0.96856679     0.84500
O503        O  0.48958120  0.56767898  0.96197850    -0.80400
O504        O  0.04623350  0.95378547  0.77585288    -0.77900
C505        C  0.09842088  0.52895494  0.67586270     0.83100
O506        O  0.47868095  0.87859076  0.65594027    -0.79000
O507        O  0.11566386  0.94162404  0.60808311    -0.80500
O508        O  0.14924007  0.94076671  0.75459097    -0.80300
O509        O  0.07419266  0.92582496  0.80844612    -0.79000
Zn510      Zn  0.04866574  0.95135655  0.71759444     1.55700
O511        O  0.16866878  0.98136837  0.69996974    -0.80400
Cd512      Cd  0.08919368  0.91083227  0.75222165     1.59700
Cd513      Cd  0.03324014  0.88085657  0.66562212     1.59600
O514        O  0.05926681  0.85078713  0.75458465    -0.80300
O515        O  0.07355023  0.92647625  0.69928494    -1.90800
Cd516      Cd  0.11917277  0.96678698  0.66562387     1.58300
O517        O  0.01866426  0.83136024  0.69996315    -0.80300
O518        O  0.12143510  0.52134176  0.65594253    -0.79000
C519        C  0.47106630  0.90160411  0.67585928     0.83600
C520        C  0.05579991  0.94421776  0.80897013     0.83200
O521        O  0.07243178  0.50344373  0.69880495    -0.77900
C522        C  0.17547012  0.96936409  0.73376954     0.84100
O523        O  0.49657760  0.92759216  0.69880196    -0.78000
C524        C  0.03067087  0.82455766  0.73376098     0.84200
C525        C  0.08939529  0.91063687  0.59001161     0.84500
O526        O  0.05840631  0.88436996  0.60808262    -0.80400
O527        O  0.49687104  0.56540695  0.69923722    -0.77900
C528        C  0.09843646  0.56609334  0.67585044     0.83100
O529        O  0.07426576  0.64503248  0.80872377    -0.79000
O530        O  0.16867001  0.68356040  0.70060124    -0.80500
O531        O  0.05884404  0.67076079  0.60836221    -0.80300
O532        O  0.47912939  0.59665077  0.65658857    -0.79000
Zn533      Zn  0.04904483  0.59382472  0.71782795     1.55700
O534        O  0.11595154  0.67103308  0.60830708    -0.80400
Cd535      Cd  0.03378935  0.64917818  0.66605150     1.59700
Cd536      Cd  0.08956119  0.67523593  0.75259278     1.59600
O537        O  0.01929988  0.68397380  0.70046692    -0.80300
O538        O  0.07390369  0.64385355  0.69958654    -1.90800
Cd539      Cd  0.11926767  0.64913811  0.66577887     1.59900
O540        O  0.05976104  0.70533079  0.75518990    -0.80300
O541        O  0.12131338  0.59684090  0.65572210    -0.79000
C542        C  0.05614454  0.60807149  0.80919361     0.83600
C543        C  0.47138760  0.56590418  0.67647557     0.83200
O544        O  0.07260222  0.56549820  0.69893939    -0.77900
C545        C  0.08972611  0.67556480  0.59023979     0.84100
O546        O  0.04676971  0.58888341  0.77605774    -0.78000
C547        C  0.03116667  0.70273488  0.73437219     0.84200
C548        C  0.17561182  0.70209893  0.73463860     0.84500
O549        O  0.14965539  0.70481470  0.75533517    -0.80400
O550        O  0.43452116  0.92742098  0.69893754    -0.77900
C551        C  0.43411566  0.52863343  0.67647538     0.83100
O552        O  0.35498583  0.92575876  0.80872412    -0.79000
O553        O  0.31605044  0.98072942  0.70047639    -0.80500
O554        O  0.32897932  0.88407673  0.60830663    -0.80300
O555        O  0.40317793  0.87871443  0.65571699    -0.79000
Zn556      Zn  0.40619403  0.95097761  0.71782702     1.55700
O557        O  0.32925192  0.94118255  0.60836332    -0.80400
Cd558      Cd  0.35087857  0.88076049  0.66577695     1.59700
Cd559      Cd  0.32478116  0.91046366  0.75259475     1.59600
O560        O  0.31645839  0.83136006  0.70060189    -0.80300
O561        O  0.35616343  0.92612154  0.69958697    -1.90800
Cd562      Cd  0.35083894  0.96623566  0.66605337     1.59900
O563        O  0.29520397  0.85037114  0.75533880    -0.80300
O564        O  0.40336829  0.52089285  0.65658889    -0.79000
C565        C  0.39194782  0.94387820  0.80919311     0.83600
C566        C  0.43392624  0.90158870  0.67584681     0.83200
O567        O  0.43461258  0.50314996  0.69923628    -0.77900
C568        C  0.32444661  0.91030123  0.59024002     0.84100
O569        O  0.41113637  0.95325204  0.77605699    -0.78000
C570        C  0.29792153  0.82441706  0.73464106     0.84200
C571        C  0.29728948  0.96886284  0.73438217     0.84500
O572        O  0.29468780  0.94026475  0.75519609    -0.80400
C573        C  0.20797605  0.60171903  0.97919163     0.80800
N574        N  0.21136949  0.60346230  0.02130402    -0.77500
C575        C  0.17841971  0.58727609  0.04517588     0.83200
N576        N  0.14269441  0.56964118  0.02734789    -0.77500
C577        C  0.13871726  0.56759797  0.98614455     0.83300
N578        N  0.17137414  0.58362262  0.96185373    -0.79200
C579        C  0.39830453  0.79205353  0.97919125     0.80800
N580        N  0.41640030  0.82865471  0.96185452    -0.77500
C581        C  0.43241604  0.86130934  0.98614638     0.83200
N582        N  0.43036433  0.85733082  0.02734952    -0.77500
C583        C  0.41273054  0.82160590  0.04517610     0.83300
N584        N  0.39655423  0.78865837  0.02130329    -0.79200
C585        C  0.39829211  0.60173573  0.97900631     0.80800
N586        N  0.41649461  0.58353338  0.96158006    -0.77500
C587        C  0.43276989  0.56724883  0.98582132     0.83200
N588        N  0.43081669  0.56919160  0.02701869    -0.77500
C589        C  0.41306946  0.58693888  0.04491513     0.83300
N590        N  0.39665515  0.60336411  0.02112694    -0.79200
O591        O  0.36351583  0.63652059  0.96850979    -0.77900
C592        C  0.38066500  0.75644402  0.95220710     0.83100
O593        O  0.23918343  0.61716233  0.91300521    -0.79000
O594        O  0.32503811  0.73162935  0.82658614    -0.80500
O595        O  0.41120010  0.67525563  0.82663663    -0.80300
O596        O  0.38263355  0.61740009  0.91292829    -0.79000
Zn597      Zn  0.33499023  0.66504514  0.94626172     1.55700
O598        O  0.41126944  0.73164248  0.82641373    -0.80400
Cd599      Cd  0.36269722  0.63733918  0.86338269     1.59700
Cd600      Cd  0.27900508  0.63716886  0.86322450     1.59600
O601        O  0.32478065  0.58883829  0.82663529    -0.80300
O602        O  0.33487666  0.66515960  0.88485181    -1.90800
Cd603      Cd  0.36286818  0.72103009  0.86322369     1.59900
O604        O  0.26839304  0.58877034  0.82641262    -0.80300
O605        O  0.38287046  0.76084942  0.91300431    -0.79000
C606        C  0.24358803  0.61936520  0.95220812     0.83600
C607        C  0.38051412  0.61951960  0.95213474     0.83200
O608        O  0.36362205  0.72224751  0.96850617    -0.77900
C609        C  0.42611696  0.71091379  0.81505408     0.84100
O610        O  0.27778551  0.63640975  0.96850738    -0.78000
C611        C  0.28912154  0.57392238  0.81505296     0.84200
C612        C  0.28927711  0.71075897  0.81518865     0.84500
O613        O  0.26840652  0.67499970  0.82658876    -0.80400
C614        C  0.27131446  0.53842861  0.78760884     0.03700
C615        C  0.23209279  0.52137275  0.77394425    -0.12500
C616        C  0.21565425  0.98800503  0.74834568     0.01200
C617        C  0.23753271  0.97140879  0.73627207    -0.11000
C618        C  0.27598830  0.98763082  0.74891655     0.03700
C619        C  0.29321569  0.52105883  0.77450809    -0.10400
H620        H  0.21432105  0.53376744  0.78311274     0.09300
H621        H  0.22452975  0.94566841  0.71660263     0.06800
H622        H  0.32340375  0.53328402  0.78407080     0.06700
C623        C  0.46160982  0.72871862  0.78760730     0.03700
C624        C  0.47866630  0.76793862  0.77394130    -0.12500
C625        C  0.01203021  0.78437377  0.74833579     0.01200
C626        C  0.02862246  0.76249281  0.73625604    -0.11000
C627        C  0.01240066  0.72403881  0.74890482     0.03700
C628        C  0.47897646  0.70681580  0.77450319    -0.10400
H629        H  0.46627436  0.78571177  0.78311375     0.09300
H630        H  0.05435875  0.77549208  0.71658315     0.06800
H631        H  0.46675149  0.67662940  0.78406834     0.06700
C632        C  0.27152310  0.72851035  0.78794426     0.03700
C633        C  0.23209393  0.70631282  0.77465491    -0.12500
C634        C  0.21581481  0.72342742  0.74927172     0.01200
C635        C  0.23802221  0.76200282  0.73704510    -0.11000
C636        C  0.27659733  0.78421499  0.74927461     0.03700
C637        C  0.29371594  0.76793970  0.77465781    -0.10400
H638        H  0.21406784  0.67599538  0.78392860     0.09300
H639        H  0.22516287  0.77485871  0.71752731     0.06800
H640        H  0.32403491  0.78596995  0.78393435     0.06700
O641        O  0.63910244  0.36089763  0.46866700    -0.77900
C642        C  0.62195178  0.24094817  0.45230457     0.83100
O643        O  0.76342037  0.38024755  0.41309658    -0.79000
O644        O  0.67757668  0.26579201  0.32668065    -0.80500
O645        O  0.59139454  0.32215643  0.32671207    -0.80300
O646        O  0.61999435  0.38000745  0.41305595    -0.79000
Zn647      Zn  0.66763495  0.33236527  0.44640017     1.55700
O648        O  0.59133792  0.26577719  0.32648144    -0.80400
Cd649      Cd  0.63991463  0.36008442  0.36347792     1.59700
Cd650      Cd  0.72359771  0.36025120  0.36331227     1.59600
O651        O  0.67784370  0.40860253  0.32671085    -0.80300
O652        O  0.66773477  0.33226404  0.38496479    -1.90800
Cd653      Cd  0.63974618  0.27640244  0.36331175     1.59900
O654        O  0.73422351  0.40865718  0.32647953    -0.80300
O655        O  0.61975357  0.23658245  0.41309619    -0.79000
C656        C  0.75905542  0.37805211  0.45230519     0.83600
C657        C  0.62210557  0.37789692  0.45226899     0.83200
O658        O  0.63899397  0.27513174  0.46863603    -0.77900
C659        C  0.57648388  0.28650114  0.31511546     0.84100
O660        O  0.72487076  0.36100899  0.46863700    -0.78000
C661        C  0.71349994  0.42351206  0.31511403     0.84200
C662        C  0.71333869  0.28665885  0.31528580     0.84500
O663        O  0.73420605  0.32241907  0.32668323    -0.80400
C664        C  0.73109527  0.26890501  0.28804306     0.03700
C665        C  0.70889806  0.22947572  0.27474626    -0.12500
C666        C  0.72600859  0.21321068  0.24933786     0.01200
C667        C  0.76457860  0.23543077  0.23710104    -0.11000
C668        C  0.78679399  0.27400062  0.24933593     0.03700
C669        C  0.77052439  0.29110607  0.27474418    -0.10400
H670        H  0.67858200  0.21144519  0.28402050     0.09300
H671        H  0.77742553  0.22258779  0.21755670     0.06800
H672        H  0.78855278  0.32142350  0.28401737     0.06700
C673        C  0.73130793  0.45899722  0.28763543     0.03700
C674        C  0.77051629  0.47602155  0.27392078    -0.12500
C675        C  0.78694116  0.00936163  0.24826813     0.01200
C676        C  0.76506125  0.02595633  0.23619184    -0.11000
C677        C  0.72662829  0.00977738  0.24888908     0.03700
C678        C  0.70941394  0.47638035  0.27453389    -0.10400
H679        H  0.78828713  0.46362203  0.28309114     0.09300
H680        H  0.77804878  0.05166981  0.21647924     0.06800
H681        H  0.67924042  0.46418383  0.28412802     0.06700
C682        C  0.54099997  0.26869578  0.28763408     0.03700
C683        C  0.52397632  0.22948937  0.27391750    -0.12500
C684        C  0.99064061  0.21306819  0.24825738     0.01200
C685        C  0.97404952  0.23495029  0.23617541    -0.11000
C686        C  0.99022670  0.27338087  0.24887769     0.03700
C687        C  0.52361930  0.29059084  0.27452982    -0.10400
H688        H  0.53637269  0.21171872  0.28309101     0.09300
H689        H  0.94834041  0.22196634  0.21645752     0.06800
H690        H  0.53581493  0.32076296  0.28412762     0.06700
C691        C  0.79471400  0.39571873  0.47923813     0.80800
N692        N  0.83127850  0.41376987  0.46182266    -0.77500
C693        C  0.86398903  0.42983525  0.48603447     0.83200
N694        N  0.86010325  0.42788683  0.52725567    -0.77500
C695        C  0.82441231  0.41029167  0.54517045     0.83300
N696        N  0.79141117  0.39405623  0.52136141    -0.79200
C697        C  0.60431142  0.39569786  0.47910042     0.80800
N698        N  0.58612374  0.41388505  0.46159972    -0.77500
C699        C  0.56982666  0.43019267  0.48576125     0.83200
N700        N  0.57174299  0.42828840  0.52697582    -0.77500
C701        C  0.58947637  0.41055491  0.54495937     0.83300
N702        N  0.60591209  0.39410695  0.52123335    -0.79200
O703        O  0.95638394  0.04363348  0.27554134    -0.77900
C704        C  0.90415191  0.46843760  0.17554025     0.83100
O705        O  0.52396027  0.11890402  0.15567361    -0.79000
O706        O  0.88685757  0.05588187  0.10799425    -0.80500
O707        O  0.85335797  0.05665413  0.25439739    -0.80300
O708        O  0.92842241  0.07159714  0.30812678    -0.79000
Zn709      Zn  0.95395804  0.04605534  0.21726901     1.55700
O710        O  0.83389511  0.01597815  0.19985337    -0.80400
Cd711      Cd  0.91340565  0.08660575  0.25194447     1.59700
Cd712      Cd  0.96939036  0.11663041  0.16544607     1.59600
O713        O  0.94334990  0.14665216  0.25439050    -0.80300
O714        O  0.92905824  0.07095287  0.19903728    -1.90800
Cd715      Cd  0.88337821  0.03062100  0.16544783     1.59900
O716        O  0.98402766  0.16611375  0.19984654    -0.80300
O717        O  0.88110654  0.47605493  0.15567566    -0.79000
C718        C  0.53157736  0.09585792  0.17553631     0.83600
C719        C  0.94681426  0.05320532  0.30865451     0.83200
O720        O  0.93017162  0.49395431  0.19845612    -0.77900
C721        C  0.82711637  0.02800358  0.23364591     0.84100
O722        O  0.50605955  0.06983868  0.19845192    -0.78000
C723        C  0.97199926  0.17289347  0.23363678     0.84200
C724        C  0.91312138  0.08688583  0.08994262     0.84500
O725        O  0.94412736  0.11314734  0.10799340    -0.80400
O726        O  0.50577890  0.43198506  0.19879980    -0.77900
C727        C  0.90413485  0.43128676  0.17551937     0.83100
O728        O  0.92844949  0.35247009  0.30839809    -0.79000
O729        O  0.83386853  0.31380562  0.20056604    -0.80500
O730        O  0.94359743  0.32637183  0.10832159    -0.80300
O731        O  0.52350662  0.40066541  0.15626906    -0.79000
Zn732      Zn  0.95361371  0.40360647  0.21744907     1.55700
O733        O  0.88651168  0.32616641  0.10826578    -0.80400
Cd734      Cd  0.96880150  0.34814269  0.16588484     1.59700
Cd735      Cd  0.91306313  0.32217759  0.25237950     1.59600
O736        O  0.98332483  0.31341577  0.20039109    -0.80300
O737        O  0.92869069  0.35352739  0.19935900    -1.90800
Cd738      Cd  0.88323435  0.34817923  0.16565606     1.59900
O739        O  0.94283989  0.29206566  0.25508218    -0.80300
O740        O  0.88116395  0.40048140  0.15551894    -0.79000
C741        C  0.94655946  0.38942778  0.30883163     0.83600
C742        C  0.53126532  0.43145816  0.17607574     0.83200
O743        O  0.93004567  0.43191967  0.19851832    -0.77900
C744        C  0.91270559  0.32157249  0.09022167     0.84100
O745        O  0.95592501  0.40861067  0.27568461    -0.78000
C746        C  0.97145693  0.29467414  0.23430742     0.84200
C747        C  0.82698135  0.29532768  0.23464030     0.84500
O748        O  0.85297486  0.29263758  0.25529727    -0.80400
O749        O  0.56809603  0.06996510  0.19851621    -0.77900
C750        C  0.56855593  0.46874714  0.17607591     0.83100
O751        O  0.64754732  0.07155995  0.30839762    -0.79000
O752        O  0.68659446  0.01667934  0.20040130    -0.80500
O753        O  0.67385683  0.11349378  0.10826522    -0.80300
O754        O  0.59953550  0.11884202  0.15551308    -0.79000
Zn755      Zn  0.59640955  0.04639731  0.21744819     1.55700
O756        O  0.67364956  0.05640870  0.10832309    -0.80400
Cd757      Cd  0.65183949  0.11677139  0.16565379     1.59700
Cd758      Cd  0.67784081  0.08694641  0.25238017     1.59600
O759        O  0.68621026  0.16613573  0.20056544    -0.80300
O760        O  0.64649044  0.07131764  0.19935925    -1.90800
Cd761      Cd  0.65187437  0.03120653  0.16588741     1.59900
O762        O  0.70737815  0.14703306  0.25529965    -0.80300
O763        O  0.59934970  0.47650461  0.15626985    -0.79000
C764        C  0.61058869  0.05345213  0.30883070     0.83600
C765        C  0.56872917  0.09587400  0.17551512     0.83200
O766        O  0.56802937  0.49423328  0.19879956    -0.77900
C767        C  0.67845091  0.08730016  0.09022210     0.84100
O768        O  0.59140527  0.04408737  0.27568370    -0.78000
C769        C  0.70468609  0.17302420  0.23464156     0.84200
C770        C  0.70533750  0.02854861  0.23431676     0.84500
O771        O  0.70795251  0.05717015  0.25508641    -0.80400
O772        O  0.97666666  0.02335044  0.33830234    -0.77900
C773        C  0.58651965  0.04147424  0.34582192     0.83100
O774        O  0.95238507  0.40108108  0.38262187    -0.79000
O775        O  0.57028148  0.48697571  0.46173214    -0.80500
O776        O  0.51338177  0.07943844  0.46176459    -0.80300
O777        O  0.95261841  0.04740256  0.38250564    -0.79000
Zn778      Zn  0.50121328  0.49880135  0.36214782     1.55700
O779        O  0.57044937  0.07963320  0.46192929    -0.80400
Cd780      Cd  0.97250354  0.02751330  0.43238740     1.59700
Cd781      Cd  0.97232025  0.44087083  0.43257107     1.59600
O782        O  0.92057384  0.48663610  0.46176198    -0.80300
O783        O  0.50130191  0.49871435  0.41800016    -1.90800
Cd784      Cd  0.55914720  0.02769439  0.43257027     1.59900
O785        O  0.92037787  0.42956978  0.46192719    -0.80300
O786        O  0.59893674  0.04762911  0.38262042    -0.79000
C787        C  0.95853829  0.41349677  0.34582287     0.83600
C788        C  0.95878117  0.04123869  0.34569899     0.83200
O789        O  0.55056333  0.02355458  0.33839229    -0.77900
C790        C  0.55029013  0.09623755  0.46861852     0.84100
O791        O  0.97645769  0.44945197  0.33839250    -0.78000
C792        C  0.90377290  0.44972858  0.46861532     0.84200
C793        C  0.55000674  0.45001119  0.46838403     0.84500
O794        O  0.51304079  0.42973727  0.46173339    -0.80400
C795        C  0.60429152  0.20529194  0.47923815     0.80800
N796        N  0.58624131  0.16872831  0.46182397    -0.77500
C797        C  0.57018462  0.13601979  0.48603687     0.83200
N798        N  0.57214066  0.13990657  0.52725787    -0.77500
C799        C  0.58973463  0.17559704  0.54517101     0.83300
N800        N  0.60596053  0.20859622  0.52136102    -0.79200
O801        O  0.52593815  0.47408237  0.83859591    -0.77900
C802        C  0.91603616  0.45588394  0.84618874     0.83100
O803        O  0.55032804  0.09637256  0.88299741    -0.79000
O804        O  0.93233902  0.01043997  0.96197672    -0.80500
O805        O  0.98924037  0.41792892  0.96199147    -0.80300
O806        O  0.54998823  0.45002696  0.88281171    -0.79000
Zn807      Zn  0.50138283  0.49863851  0.86246610     1.55700
O808        O  0.93219217  0.41777160  0.96226058    -0.80400
Cd809      Cd  0.53012057  0.46989860  0.93269746     1.59700
Cd810      Cd  0.53031802  0.05653127  0.93292121     1.59600
O811        O  0.58209424  0.01077638  0.96198948    -0.80300
O812        O  0.50132360  0.49869633  0.91832494    -1.90800
Cd813      Cd  0.94348679  0.46970443  0.93292055     1.59900
O814        O  0.58225405  0.06782393  0.96225820    -0.80300
O815        O  0.90364597  0.44969477  0.88299628    -0.79000
C816        C  0.54413858  0.08398347  0.84618961     0.83600
C817        C  0.54382592  0.45619143  0.84600329     0.83200
O818        O  0.95199322  0.47386301  0.83874416    -0.77900
C819        C  0.95233418  0.40113221  0.96884600     0.84100
O820        O  0.52615913  0.04802751  0.83874483    -0.78000
C821        C  0.59889319  0.04768169  0.96884328     0.84200
C822        C  0.95260659  0.04741294  0.96856677     0.84500
O823        O  0.98958123  0.06767903  0.96197861    -0.80400
O824        O  0.54623348  0.45378551  0.77585286    -0.77900
C825        C  0.59842105  0.02895503  0.67586274     0.83100
O826        O  0.97868084  0.37859080  0.65594027    -0.79000
O827        O  0.61566393  0.44162421  0.60808316    -0.80500
O828        O  0.64924010  0.44076675  0.75459099    -0.80300
O829        O  0.57419259  0.42582500  0.80844614    -0.79000
Zn830      Zn  0.54866573  0.45135654  0.71759445     1.55700
O831        O  0.66866880  0.48136841  0.69996977    -0.80400
Cd832      Cd  0.58919366  0.41083225  0.75222164     1.59700
Cd833      Cd  0.53324014  0.38085656  0.66562210     1.59600
O834        O  0.55926687  0.35078709  0.75458453    -0.80300
O835        O  0.57355009  0.42647623  0.69928492    -1.90800
Cd836      Cd  0.61917272  0.46678698  0.66562390     1.58300
O837        O  0.51866427  0.33136030  0.69996320    -0.80300
O838        O  0.62143522  0.02134173  0.65594265    -0.79000
C839        C  0.97106630  0.40160415  0.67585932     0.83600
C840        C  0.55579977  0.44421772  0.80897012     0.83200
O841        O  0.57243188  0.00344375  0.69880473    -0.77900
C842        C  0.67547014  0.46936410  0.73376954     0.84100
O843        O  0.99657771  0.42759218  0.69880198    -0.78000
C844        C  0.53067081  0.32455767  0.73376103     0.84200
C845        C  0.58939538  0.41063696  0.59001163     0.84500
O846        O  0.55840639  0.38436996  0.60808258    -0.80400
O847        O  0.99687109  0.06540688  0.69923723    -0.77900
C848        C  0.59843647  0.06609340  0.67585047     0.83100
O849        O  0.57426576  0.14503262  0.80872386    -0.79000
O850        O  0.66866995  0.18356036  0.70060123    -0.80500
O851        O  0.55884415  0.17076084  0.60836227    -0.80300
O852        O  0.97912937  0.09665084  0.65658866    -0.79000
Zn853      Zn  0.54904479  0.09382472  0.71782794     1.55700
O854        O  0.61595154  0.17103314  0.60830709    -0.80400
Cd855      Cd  0.53378930  0.14917819  0.66605149     1.59700
Cd856      Cd  0.58956117  0.17523596  0.75259280     1.59600
O857        O  0.51929987  0.18397382  0.70046686    -0.80300
O858        O  0.57390362  0.14385354  0.69958653    -1.90800
Cd859      Cd  0.61926764  0.14913811  0.66577884     1.59900
O860        O  0.55976103  0.20533083  0.75518986    -0.80300
O861        O  0.62131341  0.09684095  0.65572205    -0.79000
C862        C  0.55614451  0.10807158  0.80919363     0.83600
C863        C  0.97138758  0.06590422  0.67647572     0.83200
O864        O  0.57260220  0.06549825  0.69893952    -0.77900
C865        C  0.58972607  0.17556469  0.59023976     0.84100
O866        O  0.54676964  0.08888341  0.77605775    -0.78000
C867        C  0.53116653  0.20273476  0.73437224     0.84200
C868        C  0.67561176  0.20209893  0.73463857     0.84500
O869        O  0.64965536  0.20481469  0.75533521    -0.80400
O870        O  0.93452121  0.42742093  0.69893752    -0.77900
C871        C  0.93411560  0.02863341  0.67647545     0.83100
O872        O  0.85498584  0.42575878  0.80872415    -0.79000
O873        O  0.81605035  0.48072927  0.70047648    -0.80500
O874        O  0.82897927  0.38407672  0.60830665    -0.80300
O875        O  0.90317789  0.37871440  0.65571698    -0.79000
Zn876      Zn  0.90619400  0.45097760  0.71782700     1.55700
O877        O  0.82925187  0.44118255  0.60836332    -0.80400
Cd878      Cd  0.85087853  0.38076049  0.66577695     1.59700
Cd879      Cd  0.82478111  0.41046366  0.75259476     1.59600
O880        O  0.81645835  0.33136007  0.70060189    -0.80300
O881        O  0.85616337  0.42612154  0.69958696    -1.90800
Cd882      Cd  0.85083890  0.46623566  0.66605338     1.59900
O883        O  0.79520392  0.35037113  0.75533881    -0.80300
O884        O  0.90336822  0.02089273  0.65658891    -0.79000
C885        C  0.89194781  0.44387819  0.80919310     0.83600
C886        C  0.93392624  0.40158867  0.67584680     0.83200
O887        O  0.93461256  0.00314993  0.69923628    -0.77900
C888        C  0.82444661  0.41030123  0.59024001     0.84100
O889        O  0.91113635  0.45325206  0.77605696    -0.78000
C890        C  0.79792152  0.32441705  0.73464110     0.84200
C891        C  0.79728948  0.46886283  0.73438227     0.84500
O892        O  0.79468784  0.44026476  0.75519613    -0.80400
C893        C  0.70797600  0.10171892  0.97919163     0.80800
N894        N  0.71136946  0.10346222  0.02130403    -0.77500
C895        C  0.67841978  0.08727608  0.04517591     0.83200
N896        N  0.64269454  0.06964129  0.02734787    -0.77500
C897        C  0.63871731  0.06759800  0.98614453     0.83300
N898        N  0.67137409  0.08362254  0.96185369    -0.79200
C899        C  0.89830447  0.29205357  0.97919126     0.80800
N900        N  0.91640025  0.32865477  0.96185452    -0.77500
C901        C  0.93241611  0.36130937  0.98614639     0.83200
N902        N  0.93036449  0.35733083  0.02734953    -0.77500
C903        C  0.91273062  0.32160591  0.04517609     0.83300
N904        N  0.89655427  0.28865841  0.02130328    -0.79200
C905        C  0.89829210  0.10173568  0.97900633     0.80800
N906        N  0.91649457  0.08353333  0.96158007    -0.77500
C907        C  0.93276984  0.06724875  0.98582129     0.83200
N908        N  0.93081678  0.06919162  0.02701866    -0.77500
C909        C  0.91306949  0.08693882  0.04491513     0.83300
N910        N  0.89665524  0.10336412  0.02112698    -0.79200
O911        O  0.86351588  0.13652051  0.96850976    -0.77900
C912        C  0.88066495  0.25644406  0.95220712     0.83100
O913        O  0.73918354  0.11716232  0.91300520    -0.79000
O914        O  0.82503805  0.23162938  0.82658596    -0.80500
O915        O  0.91120006  0.17525560  0.82663656    -0.80300
O916        O  0.88263354  0.11740015  0.91292826    -0.79000
Zn917      Zn  0.83499033  0.16504517  0.94626171     1.55700
O918        O  0.91126946  0.23164255  0.82641381    -0.80400
Cd919      Cd  0.86269719  0.13733918  0.86338269     1.59700
Cd920      Cd  0.77900521  0.13716888  0.86322451     1.59600
O921        O  0.82478059  0.08883827  0.82663529    -0.80300
O922        O  0.83487689  0.16515982  0.88485182    -1.90800
Cd923      Cd  0.86286824  0.22103026  0.86322369     1.59900
O924        O  0.76839302  0.08877033  0.82641262    -0.80300
O925        O  0.88287050  0.26084965  0.91300433    -0.79000
C926        C  0.74358807  0.11936523  0.95220811     0.83600
C927        C  0.88051417  0.11951959  0.95213472     0.83200
O928        O  0.86362205  0.22224747  0.96850614    -0.77900
C929        C  0.92611696  0.21091381  0.81505412     0.84100
O930        O  0.77778559  0.13640972  0.96850732    -0.78000
C931        C  0.78912149  0.07392236  0.81505295     0.84200
C932        C  0.78927709  0.21075897  0.81518866     0.84500
O933        O  0.76840665  0.17499970  0.82658882    -0.80400
C934        C  0.77131445  0.03842859  0.78760883     0.03700
C935        C  0.73209276  0.02137271  0.77394425    -0.12500
C936        C  0.71565425  0.48800505  0.74834569     0.01200
C937        C  0.73753272  0.47140882  0.73627209    -0.11000
C938        C  0.77598838  0.48763088  0.74891663     0.03700
C939        C  0.79321569  0.02105884  0.77450810    -0.10400
H940        H  0.71432112  0.03376728  0.78311263     0.09300
H941        H  0.72452988  0.44566843  0.71660268     0.06800
H942        H  0.82340396  0.03328417  0.78407093     0.06700
C943        C  0.96160982  0.22871866  0.78760727     0.03700
C944        C  0.97866630  0.26793862  0.77394129    -0.12500
C945        C  0.51203012  0.28437378  0.74833588     0.01200
C946        C  0.52862252  0.26249289  0.73625600    -0.11000
C947        C  0.51240053  0.22403874  0.74890487     0.03700
C948        C  0.97897644  0.20681575  0.77450319    -0.10400
H949        H  0.96627424  0.28571189  0.78311381     0.09300
H950        H  0.55435738  0.27549153  0.71658403     0.06800
H951        H  0.96675136  0.17662967  0.78406821     0.06700
C952        C  0.77152307  0.22851027  0.78794425     0.03700
C953        C  0.73209396  0.20631276  0.77465495    -0.12500
C954        C  0.71581474  0.22342730  0.74927177     0.01200
C955        C  0.73802208  0.26200282  0.73704492    -0.11000
C956        C  0.77659728  0.28421488  0.74927465     0.03700
C957        C  0.79371617  0.26793982  0.77465791    -0.10400
H958        H  0.71406802  0.17599544  0.78392877     0.09300
H959        H  0.72516365  0.27485788  0.71752807     0.06800
H960        H  0.82403332  0.28596915  0.78393405     0.06700
O961        O  0.63910242  0.86089759  0.46866693    -0.77900
C962        C  0.62195174  0.74094815  0.45230457     0.83100
O963        O  0.76342028  0.88024751  0.41309656    -0.79000
O964        O  0.67757656  0.76579195  0.32668079    -0.80500
O965        O  0.59139465  0.82215646  0.32671207    -0.80300
O966        O  0.61999433  0.88000742  0.41305588    -0.79000
Zn967      Zn  0.66763497  0.83236526  0.44640019     1.55700
O968        O  0.59133778  0.76577707  0.32648150    -0.80400
Cd969      Cd  0.63991467  0.86008444  0.36347793     1.59700
Cd970      Cd  0.72359763  0.86025119  0.36331226     1.59600
O971        O  0.67784369  0.90860248  0.32671090    -0.80300
O972        O  0.66773466  0.83226400  0.38496485    -1.90800
Cd973      Cd  0.63974608  0.77640242  0.36331176     1.59900
O974        O  0.73422353  0.90865725  0.32647949    -0.80300
O975        O  0.61975345  0.73658243  0.41309619    -0.79000
C976        C  0.75905540  0.87805213  0.45230519     0.83600
C977        C  0.62210550  0.87789684  0.45226893     0.83200
O978        O  0.63899409  0.77513172  0.46863604    -0.77900
C979        C  0.57648390  0.78650114  0.31511545     0.84100
O980        O  0.72487071  0.86100896  0.46863699    -0.78000
C981        C  0.71349998  0.92351208  0.31511403     0.84200
C982        C  0.71333858  0.78665875  0.31528584     0.84500
O983        O  0.73420589  0.82241894  0.32668315    -0.80400
C984        C  0.73109512  0.76890482  0.28804315     0.03700
C985        C  0.70889799  0.72947564  0.27474632    -0.12500
C986        C  0.72600858  0.71321063  0.24933781     0.01200
C987        C  0.76457868  0.73543071  0.23710092    -0.11000
C988        C  0.78679400  0.77400047  0.24933600     0.03700
C989        C  0.77052458  0.79110636  0.27474441    -0.10400
H990        H  0.67858181  0.71144504  0.28402061     0.09300
H991        H  0.77742539  0.72258797  0.21755669     0.06800
H992        H  0.78855140  0.82142098  0.28401700     0.06700
C993        C  0.73130773  0.95899724  0.28763543     0.03700
C994        C  0.77051645  0.97602146  0.27392087    -0.12500
C995        C  0.78694119  0.50936157  0.24826814     0.01200
C996        C  0.76506124  0.52595632  0.23619183    -0.11000
C997        C  0.72662842  0.50977741  0.24888906     0.03700
C998        C  0.70941418  0.97638047  0.27453380    -0.10400
H999        H  0.78828578  0.96362288  0.28309050     0.09300
H1000       H  0.77804883  0.55166986  0.21647923     0.06800
H1001       H  0.67923800  0.96418288  0.28412877     0.06700
C1002       C  0.54099996  0.76869579  0.28763409     0.03700
C1003       C  0.52397627  0.72948939  0.27391745    -0.12500
C1004       C  0.99064059  0.71306816  0.24825730     0.01200
C1005       C  0.97404970  0.73495037  0.23617559    -0.11000
C1006       C  0.99022668  0.77338084  0.24887766     0.03700
C1007       C  0.52361932  0.79059081  0.27452982    -0.10400
H1008       H  0.53637273  0.71171860  0.28309091     0.09300
H1009       H  0.94833894  0.72196561  0.21645682     0.06800
H1010       H  0.53581499  0.82076308  0.28412754     0.06700
C1011       C  0.79471411  0.89571883  0.47923813     0.80800
N1012       N  0.83127864  0.91377001  0.46182264    -0.77500
C1013       C  0.86398910  0.92983528  0.48603443     0.83200
N1014       N  0.86010321  0.92788679  0.52725563    -0.77500
C1015       C  0.82441230  0.91029166  0.54517045     0.83300
N1016       N  0.79141122  0.89405628  0.52136143    -0.79200
C1017       C  0.60431116  0.89569764  0.47910039     0.80800
N1018       N  0.58612374  0.91388511  0.46159976    -0.77500
C1019       C  0.56982666  0.93019272  0.48576130     0.83200
N1020       N  0.57174293  0.92828839  0.52697588    -0.77500
C1021       C  0.58947635  0.91055493  0.54495937     0.83300
N1022       N  0.60591194  0.89410682  0.52123332    -0.79200
O1023       O  0.95638388  0.54363351  0.27554136    -0.77900
C1024       C  0.90415182  0.96843754  0.17554027     0.83100
O1025       O  0.52396035  0.61890400  0.15567360    -0.79000
O1026       O  0.88685739  0.55588184  0.10799429    -0.80500
O1027       O  0.85335804  0.55665421  0.25439733    -0.80300
O1028       O  0.92842235  0.57159713  0.30812686    -0.79000
Zn1029     Zn  0.95395807  0.54605536  0.21726899     1.55700
O1030       O  0.83389499  0.51597808  0.19985348    -0.80400
Cd1031     Cd  0.91340570  0.58660575  0.25194446     1.59700
Cd1032     Cd  0.96939040  0.61663043  0.16544605     1.59600
O1033       O  0.94334994  0.64665213  0.25439050    -0.80300
O1034       O  0.92905833  0.57095285  0.19903721    -1.90800
Cd1035     Cd  0.88337813  0.53062102  0.16544784     1.59900
O1036       O  0.98402773  0.66611379  0.19984656    -0.80300
O1037       O  0.88110646  0.97605480  0.15567565    -0.79000
C1038       C  0.53157743  0.59585793  0.17553631     0.83600
C1039       C  0.94681420  0.55320532  0.30865455     0.83200
O1040       O  0.93017152  0.99395428  0.19845613    -0.77900
C1041       C  0.82711633  0.52800365  0.23364592     0.84100
O1042       O  0.50605954  0.56983873  0.19845189    -0.78000
C1043       C  0.97199926  0.67289347  0.23363676     0.84200
C1044       C  0.91312130  0.58688577  0.08994264     0.84500
O1045       O  0.94412725  0.61314729  0.10799341    -0.80400
O1046       O  0.50577877  0.93198501  0.19879991    -0.77900
C1047       C  0.90413475  0.93128681  0.17551936     0.83100
O1048       O  0.92844957  0.85247007  0.30839809    -0.79000
O1049       O  0.83386865  0.81380572  0.20056608    -0.80500
O1050       O  0.94359749  0.82637185  0.10832156    -0.80300
O1051       O  0.52350666  0.90066547  0.15626898    -0.79000
Zn1052     Zn  0.95361364  0.90360647  0.21744907     1.55700
O1053       O  0.88651157  0.82616640  0.10826579    -0.80400
Cd1054     Cd  0.96880156  0.84814269  0.16588482     1.59700
Cd1055     Cd  0.91306321  0.82217759  0.25237951     1.59600
O1056       O  0.98332493  0.81341581  0.20039107    -0.80300
O1057       O  0.92869087  0.85352740  0.19935900    -1.90800
Cd1058     Cd  0.88323441  0.84817925  0.16565611     1.59900
O1059       O  0.94283998  0.79206570  0.25508216    -0.80300
O1060       O  0.88116394  0.90048141  0.15551904    -0.79000
C1061       C  0.94655950  0.88942777  0.30883163     0.83600
C1062       C  0.53126522  0.93145817  0.17607574     0.83200
O1063       O  0.93004555  0.93191977  0.19851824    -0.77900
C1064       C  0.91270558  0.82157250  0.09022169     0.84100
O1065       O  0.95592498  0.90861064  0.27568461    -0.78000
C1066       C  0.97145703  0.79467421  0.23430742     0.84200
C1067       C  0.82698143  0.79532763  0.23464032     0.84500
O1068       O  0.85297489  0.79263749  0.25529741    -0.80400
O1069       O  0.56809599  0.56996507  0.19851623    -0.77900
C1070       C  0.56855591  0.96874712  0.17607593     0.83100
O1071       O  0.64754731  0.57155992  0.30839764    -0.79000
O1072       O  0.68659445  0.51667931  0.20040132    -0.80500
O1073       O  0.67385679  0.61349373  0.10826519    -0.80300
O1074       O  0.59953562  0.61884205  0.15551309    -0.79000
Zn1075     Zn  0.59640951  0.54639732  0.21744819     1.55700
O1076       O  0.67364971  0.55640882  0.10832313    -0.80400
Cd1077     Cd  0.65183954  0.61677139  0.16565378     1.59700
Cd1078     Cd  0.67784087  0.58694642  0.25238018     1.59600
O1079       O  0.68621030  0.66613571  0.20056549    -0.80300
O1080       O  0.64649038  0.57131761  0.19935927    -1.90800
Cd1081     Cd  0.65187442  0.53120654  0.16588739     1.59900
O1082       O  0.70737818  0.64703304  0.25529970    -0.80300
O1083       O  0.59934966  0.97650459  0.15626990    -0.79000
C1084       C  0.61058870  0.55345210  0.30883070     0.83600
C1085       C  0.56872924  0.59587401  0.17551512     0.83200
O1086       O  0.56802943  0.99423331  0.19879947    -0.77900
C1087       C  0.67845086  0.58730014  0.09022206     0.84100
O1088       O  0.59140527  0.54408738  0.27568370    -0.78000
C1089       C  0.70468622  0.67302420  0.23464153     0.84200
C1090       C  0.70533739  0.52854850  0.23431685     0.84500
O1091       O  0.70795253  0.55717015  0.25508643    -0.80400
O1092       O  0.97666654  0.52335041  0.33830226    -0.77900
C1093       C  0.58651968  0.54147428  0.34582191     0.83100
O1094       O  0.95238523  0.90108110  0.38262186    -0.79000
O1095       O  0.57028150  0.98697577  0.46173215    -0.80500
O1096       O  0.51338185  0.57943835  0.46176463    -0.80300
O1097       O  0.95261831  0.54740258  0.38250566    -0.79000
Zn1098     Zn  0.50121328  0.99880133  0.36214782     1.55700
O1099       O  0.57044929  0.57963315  0.46192930    -0.80400
Cd1100     Cd  0.97250336  0.52751314  0.43238739     1.59700
Cd1101     Cd  0.97232030  0.94087083  0.43257108     1.59600
O1102       O  0.92057400  0.98663619  0.46176195    -0.80300
O1103       O  0.50130180  0.99871443  0.41800017    -1.90800
Cd1104     Cd  0.55914724  0.52769437  0.43257027     1.59900
O1105       O  0.92037785  0.92956977  0.46192720    -0.80300
O1106       O  0.59893671  0.54762902  0.38262040    -0.79000
C1107       C  0.95853828  0.91349683  0.34582287     0.83600
C1108       C  0.95878103  0.54123864  0.34569900     0.83200
O1109       O  0.55056340  0.52355465  0.33839231    -0.77900
C1110       C  0.55029016  0.59623756  0.46861846     0.84100
O1111       O  0.97645771  0.94945205  0.33839251    -0.78000
C1112       C  0.90377296  0.94972863  0.46861526     0.84200
C1113       C  0.55000683  0.95001125  0.46838404     0.84500
O1114       O  0.51304090  0.92973732  0.46173344    -0.80400
C1115       C  0.60429161  0.70529194  0.47923815     0.80800
N1116       N  0.58624136  0.66872833  0.46182397    -0.77500
C1117       C  0.57018458  0.63601976  0.48603685     0.83200
N1118       N  0.57214065  0.63990645  0.52725787    -0.77500
C1119       C  0.58973465  0.67559698  0.54517101     0.83300
N1120       N  0.60596058  0.70859617  0.52136100    -0.79200
O1121       O  0.52593822  0.97408238  0.83859591    -0.77900
C1122       C  0.91603623  0.95588400  0.84618877     0.83100
O1123       O  0.55032813  0.59637258  0.88299740    -0.79000
O1124       O  0.93233904  0.51044000  0.96197665    -0.80500
O1125       O  0.98924049  0.91792894  0.96199146    -0.80300
O1126       O  0.54998830  0.95002698  0.88281171    -0.79000
Zn1127     Zn  0.50138288  0.99863852  0.86246609     1.55700
O1128       O  0.93219229  0.91777160  0.96226060    -0.80400
Cd1129     Cd  0.53012062  0.96989859  0.93269747     1.59700
Cd1130     Cd  0.53031806  0.55653128  0.93292122     1.59600
O1131       O  0.58209418  0.51077632  0.96198945    -0.80300
O1132       O  0.50132364  0.99869633  0.91832492    -1.90800
Cd1133     Cd  0.94348688  0.96970444  0.93292055     1.59900
O1134       O  0.58225406  0.56782390  0.96225820    -0.80300
O1135       O  0.90364595  0.94969470  0.88299630    -0.79000
C1136       C  0.54413868  0.58398343  0.84618963     0.83600
C1137       C  0.54382599  0.95619143  0.84600328     0.83200
O1138       O  0.95199334  0.97386307  0.83874420    -0.77900
C1139       C  0.95233428  0.90113220  0.96884599     0.84100
O1140       O  0.52615914  0.54802747  0.83874489    -0.78000
C1141       C  0.59889313  0.54768162  0.96884331     0.84200
C1142       C  0.95260662  0.54741293  0.96856682     0.84500
O1143       O  0.98958121  0.56767900  0.96197852    -0.80400
O1144       O  0.54623346  0.95378545  0.77585289    -0.77900
C1145       C  0.59842090  0.52895496  0.67586273     0.83100
O1146       O  0.97868091  0.87859079  0.65594030    -0.79000
O1147       O  0.61566388  0.94162405  0.60808311    -0.80500
O1148       O  0.64924010  0.94076671  0.75459097    -0.80300
O1149       O  0.57419269  0.92582496  0.80844611    -0.79000
Zn1150     Zn  0.54866564  0.95135655  0.71759442     1.55700
O1151       O  0.66866881  0.98136837  0.69996974    -0.80400
Cd1152     Cd  0.58919370  0.91083227  0.75222164     1.59700
Cd1153     Cd  0.53324016  0.88085657  0.66562212     1.59600
O1154       O  0.55926684  0.85078713  0.75458465    -0.80300
O1155       O  0.57355018  0.92647632  0.69928497    -1.90800
Cd1156     Cd  0.61917278  0.96678698  0.66562388     1.58300
O1157       O  0.51866429  0.83136024  0.69996315    -0.80300
O1158       O  0.62143513  0.52134178  0.65594255    -0.79000
C1159       C  0.97106634  0.90160417  0.67585932     0.83600
C1160       C  0.55579993  0.94421777  0.80897013     0.83200
O1161       O  0.57243181  0.50344373  0.69880496    -0.77900
C1162       C  0.67547015  0.96936408  0.73376953     0.84100
O1163       O  0.99657776  0.92759220  0.69880196    -0.78000
C1164       C  0.53067090  0.82455766  0.73376098     0.84200
C1165       C  0.58939528  0.91063689  0.59001161     0.84500
O1166       O  0.55840633  0.88436996  0.60808264    -0.80400
O1167       O  0.99687115  0.56540698  0.69923720    -0.77900
C1168       C  0.59843646  0.56609336  0.67585047     0.83100
O1169       O  0.57426578  0.64503247  0.80872377    -0.79000
O1170       O  0.66867004  0.68356044  0.70060122    -0.80500
O1171       O  0.55884407  0.67076079  0.60836220    -0.80300
O1172       O  0.97912939  0.59665075  0.65658857    -0.79000
Zn1173     Zn  0.54904472  0.59382472  0.71782795     1.55700
O1174       O  0.61595157  0.67103308  0.60830708    -0.80400
Cd1175     Cd  0.53378937  0.64917818  0.66605149     1.59700
Cd1176     Cd  0.58956120  0.67523592  0.75259280     1.59600
O1177       O  0.51929985  0.68397382  0.70046688    -0.80300
O1178       O  0.57390367  0.64385355  0.69958654    -1.90800
Cd1179     Cd  0.61926768  0.64913810  0.66577886     1.59900
O1180       O  0.55976103  0.70533072  0.75518992    -0.80300
O1181       O  0.62131341  0.59684090  0.65572212    -0.79000
C1182       C  0.55614458  0.60807149  0.80919361     0.83600
C1183       C  0.97138765  0.56590418  0.67647559     0.83200
O1184       O  0.57260217  0.56549823  0.69893936    -0.77900
C1185       C  0.58972615  0.67556480  0.59023979     0.84100
O1186       O  0.54676965  0.58888341  0.77605774    -0.78000
C1187       C  0.53116663  0.70273484  0.73437220     0.84200
C1188       C  0.67561177  0.70209897  0.73463861     0.84500
O1189       O  0.64965531  0.70481471  0.75533525    -0.80400
O1190       O  0.93452112  0.92742096  0.69893752    -0.77900
C1191       C  0.93411570  0.52863343  0.67647539     0.83100
O1192       O  0.85498586  0.92575875  0.80872412    -0.79000
O1193       O  0.81605036  0.98072920  0.70047647    -0.80500
O1194       O  0.82897936  0.88407672  0.60830662    -0.80300
O1195       O  0.90317789  0.87871438  0.65571697    -0.79000
Zn1196     Zn  0.90619406  0.95097760  0.71782702     1.55700
O1197       O  0.82925190  0.94118249  0.60836330    -0.80400
Cd1198     Cd  0.85087858  0.88076047  0.66577694     1.59700
Cd1199     Cd  0.82478119  0.91046367  0.75259477     1.59600
O1200       O  0.81645829  0.83136003  0.70060185    -0.80300
O1201       O  0.85616345  0.92612143  0.69958702    -1.90800
Cd1202     Cd  0.85083888  0.96623549  0.66605339     1.59900
O1203       O  0.79520398  0.85037119  0.75533893    -0.80300
O1204       O  0.90336833  0.52089285  0.65658890    -0.79000
C1205       C  0.89194785  0.94387819  0.80919311     0.83600
C1206       C  0.93392622  0.90158869  0.67584681     0.83200
O1207       O  0.93461261  0.50314996  0.69923628    -0.77900
C1208       C  0.82444662  0.91030119  0.59024000     0.84100
O1209       O  0.91113641  0.95325205  0.77605698    -0.78000
C1210       C  0.79792143  0.82441707  0.73464105     0.84200
C1211       C  0.79728952  0.96886283  0.73438227     0.84500
O1212       O  0.79468788  0.94026479  0.75519616    -0.80400
C1213       C  0.70797603  0.60171902  0.97919162     0.80800
N1214       N  0.71136949  0.60346229  0.02130400    -0.77500
C1215       C  0.67841973  0.58727608  0.04517588     0.83200
N1216       N  0.64269443  0.56964117  0.02734790    -0.77500
C1217       C  0.63871726  0.56759795  0.98614456     0.83300
N1218       N  0.67137411  0.58362259  0.96185372    -0.79200
C1219       C  0.89830446  0.79205353  0.97919125     0.80800
N1220       N  0.91640030  0.82865471  0.96185452    -0.77500
C1221       C  0.93241608  0.86130934  0.98614638     0.83200
N1222       N  0.93036437  0.85733082  0.02734952    -0.77500
C1223       C  0.91273059  0.82160590  0.04517610     0.83300
N1224       N  0.89655423  0.78865837  0.02130329    -0.79200
C1225       C  0.89829209  0.60173575  0.97900633     0.80800
N1226       N  0.91649459  0.58353343  0.96158007    -0.77500
C1227       C  0.93276988  0.56724884  0.98582131     0.83200
N1228       N  0.93081669  0.56919155  0.02701868    -0.77500
C1229       C  0.91306955  0.58693891  0.04491513     0.83300
N1230       N  0.89665514  0.60336408  0.02112697    -0.79200
O1231       O  0.86351583  0.63652054  0.96850980    -0.77900
C1232       C  0.88066502  0.75644402  0.95220710     0.83100
O1233       O  0.73918337  0.61716226  0.91300518    -0.79000
O1234       O  0.82503810  0.73162935  0.82658610    -0.80500
O1235       O  0.91120013  0.67525563  0.82663664    -0.80300
O1236       O  0.88263356  0.61740017  0.91292830    -0.79000
Zn1237     Zn  0.83499021  0.66504514  0.94626172     1.55700
O1238       O  0.91126946  0.73164247  0.82641374    -0.80400
Cd1239     Cd  0.86269725  0.63733918  0.86338269     1.59700
Cd1240     Cd  0.77900510  0.63716886  0.86322449     1.59600
O1241       O  0.82478068  0.58883829  0.82663529    -0.80300
O1242       O  0.83487668  0.66515960  0.88485181    -1.90800
Cd1243     Cd  0.86286820  0.72103009  0.86322369     1.59900
O1244       O  0.76839308  0.58877034  0.82641262    -0.80300
O1245       O  0.88287046  0.76084942  0.91300431    -0.79000
C1246       C  0.74358804  0.61936525  0.95220810     0.83600
C1247       C  0.88051408  0.61951956  0.95213475     0.83200
O1248       O  0.86362190  0.72224751  0.96850617    -0.77900
C1249       C  0.92611698  0.71091378  0.81505409     0.84100
O1250       O  0.77778556  0.63640981  0.96850735    -0.78000
C1251       C  0.78912157  0.57392237  0.81505295     0.84200
C1252       C  0.78927709  0.71075896  0.81518863     0.84500
O1253       O  0.76840653  0.67499969  0.82658874    -0.80400
C1254       C  0.77131448  0.53842860  0.78760883     0.03700
C1255       C  0.73209279  0.52137272  0.77394425    -0.12500
C1256       C  0.71565429  0.98800504  0.74834568     0.01200
C1257       C  0.73753276  0.97140882  0.73627208    -0.11000
C1258       C  0.77598844  0.98763090  0.74891662     0.03700
C1259       C  0.79321571  0.52105882  0.77450808    -0.10400
H1260       H  0.71432108  0.53376744  0.78311273     0.09300
H1261       H  0.72452983  0.94566843  0.71660266     0.06800
H1262       H  0.82340378  0.53328401  0.78407079     0.06700
C1263       C  0.96160983  0.72871861  0.78760731     0.03700
C1264       C  0.97866629  0.76793861  0.77394132    -0.12500
C1265       C  0.51203022  0.78437379  0.74833580     0.01200
C1266       C  0.52862243  0.76249281  0.73625606    -0.11000
C1267       C  0.51240056  0.72403878  0.74890476     0.03700
C1268       C  0.97897650  0.70681580  0.77450320    -0.10400
H1269       H  0.96627436  0.78571172  0.78311379     0.09300
H1270       H  0.55435873  0.77549207  0.71658322     0.06800
H1271       H  0.96675152  0.67662941  0.78406836     0.06700
C1272       C  0.77152308  0.72851036  0.78794429     0.03700
C1273       C  0.73209395  0.70631283  0.77465494    -0.12500
C1274       C  0.71581477  0.72342740  0.74927170     0.01200
C1275       C  0.73802216  0.76200282  0.73704505    -0.11000
C1276       C  0.77659730  0.78421498  0.74927458     0.03700
C1277       C  0.79371586  0.76793967  0.77465780    -0.10400
H1278       H  0.71406792  0.67599541  0.78392891     0.09300
H1279       H  0.72516293  0.77485861  0.71752734     0.06800
H1280       H  0.82403509  0.78597001  0.78393434     0.06700
loop_ 
_geom_bond_atom_site_label_1 
_geom_bond_atom_site_label_2 
_geom_bond_distance 
_geom_bond_site_symmetry_2 
_ccdc_geom_bond_type 
O1           C17   1.283       .  A
O1           Zn7   2.088       .  S
C2           O18   1.282       .  A
C2           O15   1.281       .  A
C2          C155   1.499       .  S
O3           C16   1.281       .  A
O3          Cd10   2.112       .  S
O4           C22   1.281       .  A
O4          Cd13   2.114       .  S
O5           C19   1.281       .  A
O5           Cd9   2.110       .  S
O6           C17   1.281       .  A
O6           Cd9   2.112       .  S
Zn7          O18   2.084       .  S
Zn7          O20   2.084       .  S
Zn7          O12   1.994       .  S
O8           C19   1.281       .  A
O8          Cd13   2.112       .  S
Cd9          O11   2.110       .  S
Cd9          O12   2.034       .  S
Cd10         O14   2.112       .  S
Cd10         O23   2.114       .  S
Cd10         O12   2.033       .  S
O11          C21   1.281       .  A
O12         Cd13   2.033       .  S
Cd13         O15   2.112       .  S
O14          C21   1.281       .  A
C16          O20   1.282       .  A
C16          C51   1.499       .  S
C17          C57   1.501       .  S
C19          C42   1.505       .  S
C21          C33   1.505       .  S
C22          O23   1.281       .  A
C22          C24   1.506       .  S
C24          C25   1.417       .  A
C24          C29   1.417       .  A
C25          C26   1.412       .  A
C25          H30   1.084       .  S
C26         C129   1.454       .  S
C26          C27   1.380       .  A
C27          C28   1.380       .  A
C27          H31   1.087       .  S
C28         C107   1.454       .  S
C28          C29   1.412       .  A
C29          H32   1.084       .  S
C33          C34   1.416       .  A
C33          C38   1.417       .  A
C34         C355   1.411       .  A
C34          H39   1.083       .  S
C35          C81   1.453       .  S
C35          C36   1.382       .  A
C35         C354   1.411   1_545  A
C36          C37   1.382       .  A
C36          H40   1.087       .  S
C37         C130   1.455       .  S
C37         C358   1.412   1_545  A
C38         C357   1.412       .  A
C38          H41   1.083       .  S
C42          C43   1.416       .  A
C42          C47   1.417       .  A
C43         C684   1.411   1_455  A
C43          H48   1.083       .  S
C44          C83   1.453       .  S
C44          C45   1.382       .  A
C44         C683   1.411       .  A
C45          C46   1.382       .  A
C45          H49   1.087       .  S
C46         C106   1.455       .  S
C46         C687   1.412       .  A
C47         C686   1.412   1_455  A
C47          H50   1.083       .  S
C51          N52   1.371       .  A
C51          N56   1.372       .  A
N52          C53   1.366       .  A
C53         C152   1.472       .  S
C53          N54   1.344       .  A
N54          C55   1.351       .  A
C55         C248   1.463       .  S
C55          N56   1.367       .  A
C57          N58   1.372       .  A
C57          N62   1.372       .  A
N58          C59   1.367       .  A
C59         C153   1.473       .  S
C59          N60   1.344       .  A
N60          C61   1.350       .  A
C61         C205   1.462       .  S
C61          N62   1.367       .  A
O63          C79   1.260       .  A
O63         Zn69   1.898       .  S
C64          O80   1.258       .  A
C64          O77   1.271       .  A
C64          C87   1.470       .  S
O65          C78   1.271       .  A
O65        Cd712   2.139   1_455  S
O66          C84   1.281       .  A
O66         Cd75   2.087       .  S
O67          C81   1.276       .  A
O67         Cd71   2.053       .  S
O68          C79   1.263       .  A
O68         Cd71   2.094       .  S
Zn69        O400   1.884   1_545  S
Zn69        O722   1.884       .  S
Zn69         O74   1.809       .  S
O70          C81   1.277       .  A
O70         Cd75   2.067       .  S
Cd71         O73   2.053       .  S
Cd71         O74   2.026       .  S
Cd72         O76   2.067       .  S
Cd72         O85   2.087       .  S
Cd72        O705   2.139       .  S
Cd72         O74   2.022       .  S
O73          C83   1.276       .  A
O74         Cd75   2.022       .  S
Cd75        O397   2.139   1_545  S
O76          C83   1.277       .  A
O77        Cd395   2.139       .  S
C78          O82   1.258       .  A
C78         C125   1.470       .  S
C79         C148   1.456       .  S
O80        Zn389   1.884       .  S
O82        Zn709   1.884   1_455  S
C84          O85   1.281       .  A
C84         C269   1.461       .  S
O86         C102   1.258       .  A
O86        Zn732   1.883   1_455  S
C87         O103   1.258       .  A
C87         O100   1.271       .  A
O88         C101   1.263       .  A
O88         Cd95   2.092       .  S
O89         C107   1.277       .  A
O89         Cd98   2.065       .  S
O90         C104   1.281       .  A
O90         Cd94   2.088       .  S
O91         C102   1.271       .  A
O91        Cd734   2.135   1_455  S
Zn92        O103   1.887       .  S
Zn92        O105   1.898       .  S
Zn92        O726   1.883       .  S
Zn92         O97   1.809       .  S
O93         C104   1.281       .  A
O93         Cd98   2.088       .  S
Cd94         O96   2.067       .  S
Cd94        O731   2.135       .  S
Cd94         O97   2.022       .  S
Cd95         O99   2.058       .  S
Cd95        O108   2.055       .  S
Cd95         O97   2.027       .  S
O96         C106   1.277       .  A
O97         Cd98   2.023       .  S
Cd98        O100   2.138       .  S
O99         C106   1.277       .  A
C101        O105   1.260       .  A
C101        C147   1.455       .  S
C102        C110   1.468       .  S
C104        C263   1.462       .  S
C107        O108   1.277       .  A
O109        C125   1.258       .  A
O109       Zn115   1.887       .  S
C110        O126   1.258       .  A
C110        O123   1.271       .  A
O111        C124   1.263       .  A
O111       Cd118   2.092       .  S
O112        C130   1.277       .  A
O112       Cd121   2.067       .  S
O113        C127   1.281       .  A
O113       Cd117   2.088       .  S
O114        C125   1.271       .  A
O114       Cd117   2.138       .  S
Zn115       O128   1.898       .  S
Zn115       O446   1.884   1_545  S
Zn115       O120   1.809       .  S
O116        C127   1.281       .  A
O116       Cd121   2.088       .  S
Cd117       O119   2.065       .  S
Cd117       O120   2.023       .  S
Cd118       O122   2.055       .  S
Cd118       O131   2.058       .  S
Cd118       O120   2.027       .  S
O119        C129   1.277       .  A
O120       Cd121   2.022       .  S
Cd121       O443   2.135   1_545  S
O122        C129   1.277       .  A
O123       Cd441   2.135       .  S
C124        O128   1.260       .  A
C124        C133   1.455       .  S
O126       Zn435   1.884       .  S
C127        C255   1.462       .  S
C130        O131   1.277       .  A
O132        C148   1.252       .  A
O132      Zn1098   1.855   1_545  S
C133        O149   1.252       .  A
C133        O146   1.267       .  A
O134        C147   1.267       .  A
O134       Cd141   2.115       .  S
O135        C153   1.282       .  A
O135       Cd464   2.099       .  S
O136        C150   1.282       .  A
O136       Cd780   2.095   1_455  S
O137        C148   1.267       .  A
O137       Cd140   2.118       .  S
Zn138      O1092   1.855   1_455  S
Zn138       O469   1.854       .  S
Zn138       O791   1.854   1_455  S
Zn138       O143   1.812       .  S
O139        C150   1.283       .  A
O139       Cd144   2.099       .  S
Cd140       O776   2.095       .  S
Cd140       O462   2.095   1_545  S
Cd140      O1103   2.032   1_545  S
Cd141       O145   2.099       .  S
Cd141       O794   2.099       .  S
Cd141       O783   2.032       .  S
O142        C152   1.282       .  A
O142       Cd460   2.095       .  S
O143      Cd1100   2.032   1_455  S
O143       Cd781   2.032   1_455  S
O143       Cd464   2.032       .  S
Cd144       O146   2.115       .  S
Cd144       O455   2.099   1_545  S
Cd144       O463   2.032   1_545  S
O145        C152   1.283       .  A
C147        O151   1.252       .  A
O149       Zn458   1.854   1_545  S
C150        C157   1.472       .  S
O151       Zn778   1.854       .  S
C153        O154   1.282       .  A
O154       Cd781   2.099   1_455  S
C155        N156   1.371       .  A
C155        N160   1.372       .  A
N156        C157   1.366       .  A
C157        N158   1.344       .  A
N158        C159   1.351       .  A
C159        C225   1.463       .  S
C159        N160   1.367       .  A
O161        C177   1.252       .  A
O161       Zn167   1.856       .  S
C162        O178   1.252       .  A
C162        O175   1.267       .  A
C162        C245   1.455       .  S
O163        C176   1.267       .  A
O163       Cd170   2.116       .  S
O164        C182   1.282       .  A
O164       Cd493   2.098   1_545  S
O165        C179   1.282       .  A
O165       Cd809   2.095       .  S
O166        C177   1.267       .  A
O166       Cd169   2.117       .  S
Zn167       O818   1.854   1_455  S
Zn167       O500   1.854       .  S
Zn167       O172   1.813       .  S
O168        C179   1.283       .  A
O168       Cd173   2.098       .  S
Cd169       O805   2.095   1_455  S
Cd169       O491   2.095       .  S
Cd169       O172   2.032       .  S
Cd170       O174   2.098       .  S
Cd170       O823   2.098   1_455  S
Cd170       O492   2.032   1_545  S
O171        C181   1.282       .  A
O171       Cd489   2.095   1_545  S
O172       Cd490   2.032       .  S
O172       Cd813   2.032   1_455  S
Cd173       O175   2.116       .  S
Cd173       O484   2.098       .  S
Cd173       O812   2.032       .  S
O174        C181   1.283       .  A
C176        O180   1.252       .  A
C176        C222   1.455       .  S
C177        C200   1.456       .  S
O178       Zn807   1.854       .  S
C179        C261   1.472       .  S
O180       Zn487   1.854   1_545  S
C181        C257   1.472       .  S
C182        O183   1.282       .  A
C182        C267   1.473       .  S
O183       Cd810   2.098       .  S
O184        C200   1.260       .  A
O184       Zn190   1.898       .  S
C185        O201   1.258       .  A
C185        O198   1.271       .  A
C185        C208   1.470       .  S
O186        C199   1.271       .  A
O186       Cd833   2.139       .  S
O187        C205   1.281       .  A
O187       Cd196   2.088       .  S
O188        C202   1.276       .  A
O188       Cd192   2.052       .  S
O189        C200   1.263       .  A
O189       Cd192   2.095       .  S
Zn190       O521   1.883       .  S
Zn190       O843   1.883   1_455  S
Zn190       O195   1.809       .  S
O191        C202   1.277       .  A
O191       Cd196   2.066       .  S
Cd192       O194   2.052       .  S
Cd192       O195   2.026       .  S
Cd193       O197   2.066       .  S
Cd193       O206   2.088       .  S
Cd193       O826   2.139   1_455  S
Cd193       O195   2.022       .  S
O194        C204   1.276       .  A
O195       Cd196   2.022       .  S
Cd196       O518   2.139       .  S
O197        C204   1.277       .  A
O198       Cd516   2.139   1_545  S
C199        O203   1.258       .  A
C199        C246   1.470       .  S
O201       Zn510   1.883   1_545  S
C202        C296   1.453       .  S
O203       Zn830   1.883       .  S
C204        C305   1.453       .  S
C205        O206   1.281       .  A
O207        C223   1.258       .  A
O207       Zn853   1.883       .  S
C208        O224   1.258       .  A
C208        O221   1.270       .  A
O209        C222   1.263       .  A
O209       Cd216   2.093       .  S
O210        C228   1.277       .  A
O210       Cd219   2.065       .  S
O211        C225   1.281       .  A
O211       Cd215   2.089       .  S
O212        C223   1.271       .  A
O212       Cd855   2.134       .  S
Zn213       O224   1.886       .  S
Zn213       O226   1.897       .  S
Zn213       O847   1.883   1_455  S
Zn213       O218   1.809       .  S
O214        C225   1.281       .  A
O214       Cd219   2.088       .  S
Cd215       O217   2.067       .  S
Cd215       O852   2.134   1_455  S
Cd215       O218   2.022       .  S
Cd216       O220   2.058       .  S
Cd216       O229   2.055       .  S
Cd216       O218   2.027       .  S
O217        C227   1.277       .  A
O218       Cd219   2.023       .  S
Cd219       O221   2.137       .  S
O220        C227   1.277       .  A
C222        O226   1.259       .  A
C223        C231   1.467       .  S
C227        C307   1.455       .  S
C228        O229   1.277       .  A
C228        C314   1.454       .  S
O230        C246   1.258       .  A
O230       Zn236   1.886       .  S
C231        O247   1.258       .  A
C231        O244   1.271       .  A
O232        C245   1.263       .  A
O232       Cd239   2.093       .  S
O233        C251   1.277       .  A
O233       Cd242   2.067       .  S
O234        C248   1.281       .  A
O234       Cd238   2.088       .  S
O235        C246   1.270       .  A
O235       Cd238   2.137       .  S
Zn236       O249   1.897       .  S
Zn236       O567   1.883       .  S
Zn236       O241   1.809       .  S
O237        C248   1.281       .  A
O237       Cd242   2.089       .  S
Cd238       O240   2.065       .  S
Cd238       O241   2.023       .  S
Cd239       O243   2.055       .  S
Cd239       O252   2.058       .  S
Cd239       O241   2.027       .  S
O240        C250   1.277       .  A
O241       Cd242   2.022       .  S
Cd242       O564   2.134       .  S
O243        C250   1.277       .  A
O244       Cd562   2.134   1_545  S
C245        O249   1.259       .  A
O247       Zn556   1.883   1_545  S
C250        C316   1.454       .  S
C251        O252   1.277       .  A
C251        C298   1.455       .  S
C253        C286   1.499       .  S
C253        N254   1.371   1_556  A
C253        N258   1.371       .  A
N254        C255   1.366       .  A
C255        N256   1.351       .  A
N256        C257   1.344   1_554  A
C257        N258   1.366       .  A
C259        C272   1.499       .  S
C259        N260   1.371       .  A
C259        N264   1.371   1_556  A
N260        C261   1.366       .  A
C261        N262   1.344   1_556  A
N262        C263   1.351       .  A
C263        N264   1.366       .  A
C265        C287   1.500       .  S
C265        N266   1.372       .  A
C265        N270   1.371   1_556  A
N266        C267   1.367       .  A
C267        N268   1.344   1_556  A
N268        C269   1.350       .  A
C269        N270   1.366       .  A
O271        C287   1.283       .  A
O271       Zn277   2.088       .  S
C272        O288   1.282       .  A
C272        O285   1.281       .  A
O273        C286   1.281       .  A
O273       Cd280   2.112       .  S
O274        C292   1.281       .  A
O274       Cd283   2.113       .  S
O275        C289   1.281       .  A
O275       Cd279   2.109       .  S
O276        C287   1.281       .  A
O276       Cd279   2.112       .  S
Zn277       O288   2.083       .  S
Zn277       O290   2.083       .  S
Zn277       O282   1.993       .  S
O278        C289   1.281       .  A
O278       Cd283   2.112       .  S
Cd279       O281   2.109       .  S
Cd279       O282   2.034       .  S
Cd280       O284   2.112       .  S
Cd280       O293   2.113       .  S
Cd280       O282   2.033       .  S
O281        C291   1.281       .  A
O282       Cd283   2.033       .  S
Cd283       O285   2.112       .  S
O284        C291   1.281       .  A
C286        O290   1.282       .  A
C289        C303   1.504       .  S
C291        C294   1.504       .  S
C292        O293   1.281       .  A
C292        C312   1.506       .  S
C294        C295   1.415       .  A
C294        C299   1.417       .  A
C295        C616   1.411   1_545  A
C295        H300   1.083       .  S
C296        C297   1.382       .  A
C296        C615   1.411       .  A
C297        C298   1.382       .  A
C297        H301   1.087       .  S
C298        C619   1.412       .  A
C299        C618   1.412   1_545  A
C299        H302   1.083       .  S
C303        C304   1.415       .  A
C303        C308   1.417       .  A
C304        C945   1.410       .  A
C304        H309   1.083       .  S
C305        C306   1.382       .  A
C305        C944   1.410   1_455  A
C306        C307   1.382       .  A
C306        H310   1.086       .  S
C307        C948   1.412   1_455  A
C308        C947   1.412       .  A
C308        H311   1.083       .  S
C312        C313   1.417       .  A
C312        C317   1.417       .  A
C313        C314   1.412       .  A
C313        H318   1.084       .  S
C314        C315   1.380       .  A
C315        C316   1.380       .  A
C315        H319   1.087       .  S
C316        C317   1.412       .  A
C317        H320   1.084       .  S
O321        C337   1.283       .  A
O321       Zn327   2.088       .  S
C322        O338   1.282       .  A
C322        O335   1.281       .  A
C322        C475   1.499       .  S
O323        C336   1.281       .  A
O323       Cd330   2.112       .  S
O324        C342   1.281       .  A
O324       Cd333   2.114       .  S
O325        C339   1.281       .  A
O325       Cd329   2.110       .  S
O326        C337   1.281       .  A
O326       Cd329   2.112       .  S
Zn327       O338   2.084       .  S
Zn327       O340   2.084       .  S
Zn327       O332   1.994       .  S
O328        C339   1.281       .  A
O328       Cd333   2.112       .  S
Cd329       O331   2.110       .  S
Cd329       O332   2.034       .  S
Cd330       O334   2.112       .  S
Cd330       O343   2.114       .  S
Cd330       O332   2.033       .  S
O331        C341   1.281       .  A
O332       Cd333   2.033       .  S
Cd333       O335   2.112       .  S
O334        C341   1.281       .  A
C336        O340   1.282       .  A
C336        C371   1.499       .  S
C337        C377   1.501       .  S
C339        C362   1.505       .  S
C341        C353   1.505       .  S
C342        O343   1.281       .  A
C342        C344   1.506       .  S
C344        C345   1.417       .  A
C344        C349   1.417       .  A
C345        C346   1.412       .  A
C345        H350   1.084       .  S
C346        C449   1.454       .  S
C346        C347   1.380       .  A
C347        C348   1.380       .  A
C347        H351   1.087       .  S
C348        C427   1.454       .  S
C348        C349   1.412       .  A
C349        H352   1.084       .  S
C353        C354   1.416       .  A
C353        C358   1.417       .  A
C354        H359   1.083       .  S
C355        C401   1.453       .  S
C355        C356   1.382       .  A
C356        C357   1.382       .  A
C356        H360   1.087       .  S
C357        C450   1.455       .  S
C358        H361   1.083       .  S
C362        C363   1.416       .  A
C362        C367   1.417       .  A
C363       C1004   1.411   1_455  A
C363        H368   1.083       .  S
C364        C403   1.453       .  S
C364       C1003   1.411       .  A
C364        C365   1.382       .  A
C365        C366   1.382       .  A
C365        H369   1.087       .  S
C366        C426   1.455       .  S
C366       C1007   1.412       .  A
C367       C1006   1.412   1_455  A
C367        H370   1.083       .  S
C371        N372   1.371       .  A
C371        N376   1.372       .  A
N372        C373   1.366       .  A
C373        C472   1.472       .  S
C373        N374   1.344       .  A
N374        C375   1.351       .  A
C375        C568   1.463       .  S
C375        N376   1.367       .  A
C377        N378   1.372       .  A
C377        N382   1.372       .  A
N378        C379   1.367       .  A
C379        C473   1.473       .  S
C379        N380   1.344       .  A
N380        C381   1.350       .  A
C381        C525   1.462       .  S
C381        N382   1.367       .  A
O383        C399   1.260       .  A
O383       Zn389   1.898       .  S
C384        O400   1.258       .  A
C384        O397   1.271       .  A
C384        C407   1.470       .  S
O385        C398   1.271       .  A
O385      Cd1032   2.139   1_455  S
O386        C404   1.281       .  A
O386       Cd395   2.087       .  S
O387        C401   1.276       .  A
O387       Cd391   2.053       .  S
O388        C399   1.263       .  A
O388       Cd391   2.094       .  S
Zn389      O1042   1.884       .  S
Zn389       O394   1.809       .  S
O390        C401   1.277       .  A
O390       Cd395   2.067       .  S
Cd391       O393   2.053       .  S
Cd391       O394   2.026       .  S
Cd392      O1025   2.139       .  S
Cd392       O396   2.067       .  S
Cd392       O405   2.087       .  S
Cd392       O394   2.022       .  S
O393        C403   1.276       .  A
O394       Cd395   2.022       .  S
O396        C403   1.277       .  A
C398        O402   1.258       .  A
C398        C445   1.470       .  S
C399        C468   1.456       .  S
O402      Zn1029   1.884   1_455  S
C404        O405   1.281       .  A
C404        C589   1.461       .  S
O406        C422   1.258       .  A
O406      Zn1052   1.883   1_455  S
C407        O423   1.258       .  A
C407        O420   1.271       .  A
O408        C421   1.263       .  A
O408       Cd415   2.092       .  S
O409        C427   1.277       .  A
O409       Cd418   2.065       .  S
O410        C424   1.281       .  A
O410       Cd414   2.088       .  S
O411        C422   1.271       .  A
O411      Cd1054   2.135   1_455  S
Zn412      O1046   1.883       .  S
Zn412       O423   1.887       .  S
Zn412       O425   1.898       .  S
Zn412       O417   1.809       .  S
O413        C424   1.281       .  A
O413       Cd418   2.088       .  S
Cd414      O1051   2.135       .  S
Cd414       O416   2.067       .  S
Cd414       O417   2.022       .  S
Cd415       O419   2.058       .  S
Cd415       O428   2.055       .  S
Cd415       O417   2.027       .  S
O416        C426   1.277       .  A
O417       Cd418   2.023       .  S
Cd418       O420   2.138       .  S
O419        C426   1.277       .  A
C421        O425   1.260       .  A
C421        C467   1.455       .  S
C422        C430   1.468       .  S
C424        C583   1.462       .  S
C427        O428   1.277       .  A
O429        C445   1.258       .  A
O429       Zn435   1.887       .  S
C430        O446   1.258       .  A
C430        O443   1.271       .  A
O431        C444   1.263       .  A
O431       Cd438   2.092       .  S
O432        C450   1.277       .  A
O432       Cd441   2.067       .  S
O433        C447   1.281       .  A
O433       Cd437   2.088       .  S
O434        C445   1.271       .  A
O434       Cd437   2.138       .  S
Zn435       O448   1.898       .  S
Zn435       O440   1.809       .  S
O436        C447   1.281       .  A
O436       Cd441   2.088       .  S
Cd437       O439   2.065       .  S
Cd437       O440   2.023       .  S
Cd438       O442   2.055       .  S
Cd438       O451   2.058       .  S
Cd438       O440   2.027       .  S
O439        C449   1.277       .  A
O440       Cd441   2.022       .  S
O442        C449   1.277       .  A
C444        O448   1.260       .  A
C444        C453   1.455       .  S
C447        C575   1.462       .  S
C450        O451   1.277       .  A
O452        C468   1.252       .  A
O452       Zn778   1.855       .  S
C453        O469   1.252       .  A
C453        O466   1.267       .  A
O454        C467   1.267       .  A
O454       Cd461   2.115       .  S
O455        C473   1.282       .  A
O456        C470   1.282       .  A
O456      Cd1100   2.095   1_455  S
O457        C468   1.267       .  A
O457       Cd460   2.118       .  S
Zn458       O772   1.855   1_465  S
Zn458      O1111   1.854   1_455  S
Zn458       O463   1.812       .  S
O459        C470   1.283       .  A
O459       Cd464   2.099       .  S
Cd460      O1096   2.095       .  S
Cd460       O783   2.032       .  S
Cd461       O465   2.099       .  S
Cd461      O1114   2.099       .  S
Cd461      O1103   2.032       .  S
O462        C472   1.282       .  A
O463       Cd780   2.032   1_465  S
O463      Cd1101   2.032   1_455  S
Cd464       O466   2.115       .  S
O465        C472   1.283       .  A
C467        O471   1.252       .  A
C470        C477   1.472       .  S
O471      Zn1098   1.854       .  S
C473        O474   1.282       .  A
O474      Cd1101   2.099   1_455  S
C475        N476   1.371       .  A
C475        N480   1.372       .  A
N476        C477   1.366       .  A
C477        N478   1.344       .  A
N478        C479   1.351       .  A
C479        C545   1.463       .  S
C479        N480   1.367       .  A
O481        C497   1.252       .  A
O481       Zn487   1.856       .  S
C482        O498   1.252       .  A
C482        O495   1.267       .  A
C482        C565   1.455       .  S
O483        C496   1.267       .  A
O483       Cd490   2.116       .  S
O484        C502   1.282       .  A
O485        C499   1.282       .  A
O485      Cd1129   2.095       .  S
O486        C497   1.267       .  A
O486       Cd489   2.117       .  S
Zn487      O1138   1.854   1_455  S
Zn487       O492   1.813       .  S
O488        C499   1.283       .  A
O488       Cd493   2.098       .  S
Cd489      O1125   2.095   1_455  S
Cd489       O492   2.032       .  S
Cd490       O494   2.098       .  S
Cd490      O1143   2.098   1_455  S
O491        C501   1.282       .  A
O492      Cd1133   2.032   1_455  S
Cd493       O495   2.116       .  S
Cd493      O1132   2.032       .  S
O494        C501   1.283       .  A
C496        O500   1.252       .  A
C496        C542   1.455       .  S
C497        C520   1.456       .  S
O498      Zn1127   1.854       .  S
C499        C581   1.472       .  S
C501        C577   1.472       .  S
C502        O503   1.282       .  A
C502        C587   1.473       .  S
O503      Cd1130   2.098       .  S
O504        C520   1.260       .  A
O504       Zn510   1.898       .  S
C505        O521   1.258       .  A
C505        O518   1.271       .  A
C505        C528   1.470       .  S
O506        C519   1.271       .  A
O506      Cd1153   2.139       .  S
O507        C525   1.281       .  A
O507       Cd516   2.088       .  S
O508        C522   1.276       .  A
O508       Cd512   2.052       .  S
O509        C520   1.263       .  A
O509       Cd512   2.095       .  S
Zn510      O1163   1.883   1_455  S
Zn510       O515   1.809       .  S
O511        C522   1.277       .  A
O511       Cd516   2.066       .  S
Cd512       O514   2.052       .  S
Cd512       O515   2.026       .  S
Cd513      O1146   2.139   1_455  S
Cd513       O517   2.066       .  S
Cd513       O526   2.088       .  S
Cd513       O515   2.022       .  S
O514        C524   1.276       .  A
O515       Cd516   2.022       .  S
O517        C524   1.277       .  A
C519        O523   1.258       .  A
C519        C566   1.470       .  S
C522        C616   1.453       .  S
O523      Zn1150   1.883       .  S
C524        C625   1.453       .  S
C525        O526   1.281       .  A
O527        C543   1.258       .  A
O527      Zn1173   1.883       .  S
C528        O544   1.258       .  A
C528        O541   1.270       .  A
O529        C542   1.263       .  A
O529       Cd536   2.093       .  S
O530        C548   1.277       .  A
O530       Cd539   2.065       .  S
O531        C545   1.281       .  A
O531       Cd535   2.089       .  S
O532        C543   1.271       .  A
O532      Cd1175   2.134       .  S
Zn533      O1167   1.883   1_455  S
Zn533       O544   1.886       .  S
Zn533       O546   1.897       .  S
Zn533       O538   1.809       .  S
O534        C545   1.281       .  A
O534       Cd539   2.088       .  S
Cd535      O1172   2.134   1_455  S
Cd535       O537   2.067       .  S
Cd535       O538   2.022       .  S
Cd536       O540   2.058       .  S
Cd536       O549   2.055       .  S
Cd536       O538   2.027       .  S
O537        C547   1.277       .  A
O538       Cd539   2.023       .  S
Cd539       O541   2.137       .  S
O540        C547   1.277       .  A
C542        O546   1.259       .  A
C543        C551   1.467       .  S
C547        C627   1.455       .  S
C548        O549   1.277       .  A
C548        C634   1.454       .  S
O550        C566   1.258       .  A
O550       Zn556   1.886       .  S
C551        O567   1.258       .  A
C551        O564   1.271       .  A
O552        C565   1.263       .  A
O552       Cd559   2.093       .  S
O553        C571   1.277       .  A
O553       Cd562   2.067       .  S
O554        C568   1.281       .  A
O554       Cd558   2.088       .  S
O555        C566   1.270       .  A
O555       Cd558   2.137       .  S
Zn556       O569   1.897       .  S
Zn556       O561   1.809       .  S
O557        C568   1.281       .  A
O557       Cd562   2.089       .  S
Cd558       O560   2.065       .  S
Cd558       O561   2.023       .  S
Cd559       O563   2.055       .  S
Cd559       O572   2.058       .  S
Cd559       O561   2.027       .  S
O560        C570   1.277       .  A
O561       Cd562   2.022       .  S
O563        C570   1.277       .  A
C565        O569   1.259       .  A
C570        C636   1.454       .  S
C571        O572   1.277       .  A
C571        C618   1.455       .  S
C573        C606   1.499       .  S
C573        N574   1.371   1_556  A
C573        N578   1.371       .  A
N574        C575   1.366       .  A
C575        N576   1.351       .  A
N576        C577   1.344   1_554  A
C577        N578   1.366       .  A
C579        C592   1.499       .  S
C579        N580   1.371       .  A
C579        N584   1.371   1_556  A
N580        C581   1.366       .  A
C581        N582   1.344   1_556  A
N582        C583   1.351       .  A
C583        N584   1.366       .  A
C585        C607   1.500       .  S
C585        N586   1.372       .  A
C585        N590   1.371   1_556  A
N586        C587   1.367       .  A
C587        N588   1.344   1_556  A
N588        C589   1.350       .  A
C589        N590   1.366       .  A
O591        C607   1.283       .  A
O591       Zn597   2.088       .  S
C592        O608   1.282       .  A
C592        O605   1.281       .  A
O593        C606   1.281       .  A
O593       Cd600   2.112       .  S
O594        C612   1.281       .  A
O594       Cd603   2.113       .  S
O595        C609   1.281       .  A
O595       Cd599   2.109       .  S
O596        C607   1.281       .  A
O596       Cd599   2.112       .  S
Zn597       O608   2.083       .  S
Zn597       O610   2.083       .  S
Zn597       O602   1.993       .  S
O598        C609   1.281       .  A
O598       Cd603   2.112       .  S
Cd599       O601   2.109       .  S
Cd599       O602   2.034       .  S
Cd600       O604   2.112       .  S
Cd600       O613   2.113       .  S
Cd600       O602   2.033       .  S
O601        C611   1.281       .  A
O602       Cd603   2.033       .  S
Cd603       O605   2.112       .  S
O604        C611   1.281       .  A
C606        O610   1.282       .  A
C609        C623   1.504       .  S
C611        C614   1.504       .  S
C612        O613   1.281       .  A
C612        C632   1.506       .  S
C614        C615   1.415       .  A
C614        C619   1.417       .  A
C615        H620   1.083       .  S
C616        C617   1.382       .  A
C617        C618   1.382       .  A
C617        H621   1.087       .  S
C619        H622   1.083       .  S
C623        C624   1.415       .  A
C623        C628   1.417       .  A
C624       C1265   1.411       .  A
C624        H629   1.083       .  S
C625       C1264   1.411   1_455  A
C625        C626   1.382       .  A
C626        C627   1.382       .  A
C626        H630   1.086       .  S
C627       C1268   1.412   1_455  A
C628       C1267   1.412       .  A
C628        H631   1.083       .  S
C632        C633   1.417       .  A
C632        C637   1.417       .  A
C633        C634   1.412       .  A
C633        H638   1.084       .  S
C634        C635   1.380       .  A
C635        C636   1.380       .  A
C635        H639   1.087       .  S
C636        C637   1.412       .  A
C637        H640   1.084       .  S
O641        C657   1.283       .  A
O641       Zn647   2.088       .  S
C642        O658   1.282       .  A
C642        O655   1.281       .  A
C642        C795   1.499       .  S
O643        C656   1.281       .  A
O643       Cd650   2.112       .  S
O644        C662   1.281       .  A
O644       Cd653   2.114       .  S
O645        C659   1.281       .  A
O645       Cd649   2.110       .  S
O646        C657   1.281       .  A
O646       Cd649   2.112       .  S
Zn647       O658   2.084       .  S
Zn647       O660   2.084       .  S
Zn647       O652   1.994       .  S
O648        C659   1.281       .  A
O648       Cd653   2.112       .  S
Cd649       O651   2.110       .  S
Cd649       O652   2.034       .  S
Cd650       O654   2.112       .  S
Cd650       O663   2.114       .  S
Cd650       O652   2.033       .  S
O651        C661   1.281       .  A
O652       Cd653   2.033       .  S
Cd653       O655   2.112       .  S
O654        C661   1.281       .  A
C656        O660   1.282       .  A
C656        C691   1.499       .  S
C657        C697   1.501       .  S
C659        C682   1.505       .  S
C661        C673   1.505       .  S
C662        O663   1.281       .  A
C662        C664   1.506       .  S
C664        C665   1.417       .  A
C664        C669   1.417       .  A
C665        C666   1.412       .  A
C665        H670   1.084       .  S
C666        C769   1.454       .  S
C666        C667   1.380       .  A
C667        C668   1.380       .  A
C667        H671   1.087       .  S
C668        C747   1.454       .  S
C668        C669   1.412       .  A
C669        H672   1.084       .  S
C673        C674   1.416       .  A
C673        C678   1.417       .  A
C674        C995   1.411       .  A
C674        H679   1.083       .  S
C675        C721   1.453       .  S
C675        C994   1.411   1_545  A
C675        C676   1.382       .  A
C676        C677   1.382       .  A
C676        H680   1.087       .  S
C677        C770   1.455       .  S
C677        C998   1.412   1_545  A
C678        C997   1.412       .  A
C678        H681   1.083       .  S
C682        C683   1.416       .  A
C682        C687   1.417       .  A
C683        H688   1.083       .  S
C684        C723   1.453       .  S
C684        C685   1.382       .  A
C685        C686   1.382       .  A
C685        H689   1.087       .  S
C686        C746   1.455       .  S
C687        H690   1.083       .  S
C691        N692   1.371       .  A
C691        N696   1.372       .  A
N692        C693   1.366       .  A
C693        C792   1.472       .  S
C693        N694   1.344       .  A
N694        C695   1.351       .  A
C695        C888   1.463       .  S
C695        N696   1.367       .  A
C697        N698   1.372       .  A
C697        N702   1.372       .  A
N698        C699   1.367       .  A
C699        C793   1.473       .  S
C699        N700   1.344       .  A
N700        C701   1.350       .  A
C701        C845   1.462       .  S
C701        N702   1.367       .  A
O703        C719   1.260       .  A
O703       Zn709   1.898       .  S
C704        O720   1.258       .  A
C704        O717   1.271       .  A
C704        C727   1.470       .  S
O705        C718   1.271       .  A
O706        C724   1.281       .  A
O706       Cd715   2.087       .  S
O707        C721   1.276       .  A
O707       Cd711   2.053       .  S
O708        C719   1.263       .  A
O708       Cd711   2.094       .  S
Zn709      O1040   1.884   1_545  S
Zn709       O714   1.809       .  S
O710        C721   1.277       .  A
O710       Cd715   2.067       .  S
Cd711       O713   2.053       .  S
Cd711       O714   2.026       .  S
Cd712       O716   2.067       .  S
Cd712       O725   2.087       .  S
Cd712       O714   2.022       .  S
O713        C723   1.276       .  A
O714       Cd715   2.022       .  S
Cd715      O1037   2.139   1_545  S
O716        C723   1.277       .  A
O717      Cd1035   2.139       .  S
C718        O722   1.258       .  A
C718        C765   1.470       .  S
C719        C788   1.456       .  S
O720      Zn1029   1.884       .  S
C724        O725   1.281       .  A
C724        C909   1.461       .  S
O726        C742   1.258       .  A
C727        O743   1.258       .  A
C727        O740   1.271       .  A
O728        C741   1.263       .  A
O728       Cd735   2.092       .  S
O729        C747   1.277       .  A
O729       Cd738   2.065       .  S
O730        C744   1.281       .  A
O730       Cd734   2.088       .  S
O731        C742   1.271       .  A
Zn732       O743   1.887       .  S
Zn732       O745   1.898       .  S
Zn732       O737   1.809       .  S
O733        C744   1.281       .  A
O733       Cd738   2.088       .  S
Cd734       O736   2.067       .  S
Cd734       O737   2.022       .  S
Cd735       O739   2.058       .  S
Cd735       O748   2.055       .  S
Cd735       O737   2.027       .  S
O736        C746   1.277       .  A
O737       Cd738   2.023       .  S
Cd738       O740   2.138       .  S
O739        C746   1.277       .  A
C741        O745   1.260       .  A
C741        C787   1.455       .  S
C742        C750   1.468       .  S
C744        C903   1.462       .  S
C747        O748   1.277       .  A
O749        C765   1.258       .  A
O749       Zn755   1.887       .  S
C750        O766   1.258       .  A
C750        O763   1.271       .  A
O751        C764   1.263       .  A
O751       Cd758   2.092       .  S
O752        C770   1.277       .  A
O752       Cd761   2.067       .  S
O753        C767   1.281       .  A
O753       Cd757   2.088       .  S
O754        C765   1.271       .  A
O754       Cd757   2.138       .  S
Zn755      O1086   1.884   1_545  S
Zn755       O768   1.898       .  S
Zn755       O760   1.809       .  S
O756        C767   1.281       .  A
O756       Cd761   2.088       .  S
Cd757       O759   2.065       .  S
Cd757       O760   2.023       .  S
Cd758       O762   2.055       .  S
Cd758       O771   2.058       .  S
Cd758       O760   2.027       .  S
O759        C769   1.277       .  A
O760       Cd761   2.022       .  S
Cd761      O1083   2.135   1_545  S
O762        C769   1.277       .  A
O763      Cd1081   2.135       .  S
C764        O768   1.260       .  A
C764        C773   1.455       .  S
O766      Zn1075   1.884       .  S
C767        C895   1.462       .  S
C770        O771   1.277       .  A
O772        C788   1.252       .  A
C773        O789   1.252       .  A
C773        O786   1.267       .  A
O774        C787   1.267       .  A
O774       Cd781   2.115       .  S
O775        C793   1.282       .  A
O775      Cd1104   2.099       .  S
O776        C790   1.282       .  A
O777        C788   1.267       .  A
O777       Cd780   2.118       .  S
Zn778      O1109   1.854       .  S
Zn778       O783   1.812       .  S
O779        C790   1.283       .  A
O779       Cd784   2.099       .  S
Cd780      O1102   2.095   1_545  S
Cd781       O785   2.099       .  S
O782        C792   1.282       .  A
O782      Cd1100   2.095       .  S
O783      Cd1104   2.032       .  S
Cd784      O1095   2.099   1_545  S
Cd784       O786   2.115       .  S
Cd784      O1103   2.032   1_545  S
O785        C792   1.283       .  A
C787        O791   1.252       .  A
O789      Zn1098   1.854   1_545  S
C790        C797   1.472       .  S
C793        O794   1.282       .  A
C795        N796   1.371       .  A
C795        N800   1.372       .  A
N796        C797   1.366       .  A
C797        N798   1.344       .  A
N798        C799   1.351       .  A
C799        C865   1.463       .  S
C799        N800   1.367       .  A
O801        C817   1.252       .  A
O801       Zn807   1.856       .  S
C802        O818   1.252       .  A
C802        O815   1.267       .  A
C802        C885   1.455       .  S
O803        C816   1.267       .  A
O803       Cd810   2.116       .  S
O804        C822   1.282       .  A
O804      Cd1133   2.098   1_545  S
O805        C819   1.282       .  A
O806        C817   1.267       .  A
O806       Cd809   2.117       .  S
Zn807      O1140   1.854       .  S
Zn807       O812   1.813       .  S
O808        C819   1.283       .  A
O808       Cd813   2.098       .  S
Cd809      O1131   2.095       .  S
Cd809       O812   2.032       .  S
Cd810       O814   2.098       .  S
Cd810      O1132   2.032   1_545  S
O811        C821   1.282       .  A
O811      Cd1129   2.095   1_545  S
O812      Cd1130   2.032       .  S
Cd813      O1124   2.098       .  S
Cd813       O815   2.116       .  S
O814        C821   1.283       .  A
C816        O820   1.252       .  A
C816        C862   1.455       .  S
C817        C840   1.456       .  S
C819        C901   1.472       .  S
O820      Zn1127   1.854   1_545  S
C821        C897   1.472       .  S
C822        O823   1.282       .  A
C822        C907   1.473       .  S
O824        C840   1.260       .  A
O824       Zn830   1.898       .  S
C825        O841   1.258       .  A
C825        O838   1.271       .  A
C825        C848   1.470       .  S
O826        C839   1.271       .  A
O827        C845   1.281       .  A
O827       Cd836   2.088       .  S
O828        C842   1.276       .  A
O828       Cd832   2.052       .  S
O829        C840   1.263       .  A
O829       Cd832   2.095       .  S
Zn830      O1161   1.883       .  S
Zn830       O835   1.809       .  S
O831        C842   1.277       .  A
O831       Cd836   2.066       .  S
Cd832       O834   2.052       .  S
Cd832       O835   2.026       .  S
Cd833       O837   2.066       .  S
Cd833       O846   2.088       .  S
Cd833       O835   2.022       .  S
O834        C844   1.276       .  A
O835       Cd836   2.022       .  S
Cd836      O1158   2.139       .  S
O837        C844   1.277       .  A
O838      Cd1156   2.139   1_545  S
C839        O843   1.258       .  A
C839        C886   1.470       .  S
O841      Zn1150   1.883   1_545  S
C842        C936   1.453       .  S
C844        C945   1.453       .  S
C845        O846   1.281       .  A
O847        C863   1.258       .  A
C848        O864   1.258       .  A
C848        O861   1.270       .  A
O849        C862   1.263       .  A
O849       Cd856   2.093       .  S
O850        C868   1.277       .  A
O850       Cd859   2.065       .  S
O851        C865   1.281       .  A
O851       Cd855   2.089       .  S
O852        C863   1.271       .  A
Zn853       O864   1.886       .  S
Zn853       O866   1.897       .  S
Zn853       O858   1.809       .  S
O854        C865   1.281       .  A
O854       Cd859   2.088       .  S
Cd855       O857   2.067       .  S
Cd855       O858   2.022       .  S
Cd856       O860   2.058       .  S
Cd856       O869   2.055       .  S
Cd856       O858   2.027       .  S
O857        C867   1.277       .  A
O858       Cd859   2.023       .  S
Cd859       O861   2.137       .  S
O860        C867   1.277       .  A
C862        O866   1.259       .  A
C863        C871   1.467       .  S
C867        C947   1.455       .  S
C868        O869   1.277       .  A
C868        C954   1.454       .  S
O870        C886   1.258       .  A
O870       Zn876   1.886       .  S
C871        O887   1.258       .  A
C871        O884   1.271       .  A
O872        C885   1.263       .  A
O872       Cd879   2.093       .  S
O873        C891   1.277       .  A
O873       Cd882   2.067       .  S
O874        C888   1.281       .  A
O874       Cd878   2.088       .  S
O875        C886   1.270       .  A
O875       Cd878   2.137       .  S
Zn876      O1207   1.883       .  S
Zn876       O889   1.897       .  S
Zn876       O881   1.809       .  S
O877        C888   1.281       .  A
O877       Cd882   2.089       .  S
Cd878       O880   2.065       .  S
Cd878       O881   2.023       .  S
Cd879       O883   2.055       .  S
Cd879       O892   2.058       .  S
Cd879       O881   2.027       .  S
O880        C890   1.277       .  A
O881       Cd882   2.022       .  S
Cd882      O1204   2.134       .  S
O883        C890   1.277       .  A
O884      Cd1202   2.134   1_545  S
C885        O889   1.259       .  A
O887      Zn1196   1.883   1_545  S
C890        C956   1.454       .  S
C891        O892   1.277       .  A
C891        C938   1.455       .  S
C893        C926   1.499       .  S
C893        N894   1.371   1_556  A
C893        N898   1.371       .  A
N894        C895   1.366       .  A
C895        N896   1.351       .  A
N896        C897   1.344   1_554  A
C897        N898   1.366       .  A
C899        C912   1.499       .  S
C899        N900   1.371       .  A
C899        N904   1.371   1_556  A
N900        C901   1.366       .  A
C901        N902   1.344   1_556  A
N902        C903   1.351       .  A
C903        N904   1.366       .  A
C905        C927   1.500       .  S
C905        N906   1.372       .  A
C905        N910   1.371   1_556  A
N906        C907   1.367       .  A
C907        N908   1.344   1_556  A
N908        C909   1.350       .  A
C909        N910   1.366       .  A
O911        C927   1.283       .  A
O911       Zn917   2.088       .  S
C912        O928   1.282       .  A
C912        O925   1.281       .  A
O913        C926   1.281       .  A
O913       Cd920   2.112       .  S
O914        C932   1.281       .  A
O914       Cd923   2.113       .  S
O915        C929   1.281       .  A
O915       Cd919   2.109       .  S
O916        C927   1.281       .  A
O916       Cd919   2.112       .  S
Zn917       O928   2.083       .  S
Zn917       O930   2.083       .  S
Zn917       O922   1.993       .  S
O918        C929   1.281       .  A
O918       Cd923   2.112       .  S
Cd919       O921   2.109       .  S
Cd919       O922   2.034       .  S
Cd920       O924   2.112       .  S
Cd920       O933   2.113       .  S
Cd920       O922   2.033       .  S
O921        C931   1.281       .  A
O922       Cd923   2.033       .  S
Cd923       O925   2.112       .  S
O924        C931   1.281       .  A
C926        O930   1.282       .  A
C929        C943   1.504       .  S
C931        C934   1.504       .  S
C932        O933   1.281       .  A
C932        C952   1.506       .  S
C934        C935   1.415       .  A
C934        C939   1.417       .  A
C935       C1256   1.411   1_545  A
C935        H940   1.083       .  S
C936       C1255   1.411       .  A
C936        C937   1.382       .  A
C937        C938   1.382       .  A
C937        H941   1.087       .  S
C938       C1259   1.412       .  A
C939       C1258   1.412   1_545  A
C939        H942   1.083       .  S
C943        C944   1.415       .  A
C943        C948   1.417       .  A
C944        H949   1.083       .  S
C945        C946   1.382       .  A
C946        C947   1.382       .  A
C946        H950   1.086       .  S
C948        H951   1.083       .  S
C952        C953   1.417       .  A
C952        C957   1.417       .  A
C953        C954   1.412       .  A
C953        H958   1.084       .  S
C954        C955   1.380       .  A
C955        C956   1.380       .  A
C955        H959   1.087       .  S
C956        C957   1.412       .  A
C957        H960   1.084       .  S
O961        C977   1.283       .  A
O961       Zn967   2.088       .  S
C962        O978   1.282       .  A
C962        O975   1.281       .  A
C962       C1115   1.499       .  S
O963        C976   1.281       .  A
O963       Cd970   2.112       .  S
O964        C982   1.281       .  A
O964       Cd973   2.114       .  S
O965        C979   1.281       .  A
O965       Cd969   2.110       .  S
O966        C977   1.281       .  A
O966       Cd969   2.112       .  S
Zn967       O978   2.084       .  S
Zn967       O980   2.084       .  S
Zn967       O972   1.994       .  S
O968        C979   1.281       .  A
O968       Cd973   2.112       .  S
Cd969       O971   2.110       .  S
Cd969       O972   2.034       .  S
Cd970       O974   2.112       .  S
Cd970       O983   2.114       .  S
Cd970       O972   2.033       .  S
O971        C981   1.281       .  A
O972       Cd973   2.033       .  S
Cd973       O975   2.112       .  S
O974        C981   1.281       .  A
C976        O980   1.282       .  A
C976       C1011   1.499       .  S
C977       C1017   1.501       .  S
C979       C1002   1.505       .  S
C981        C993   1.505       .  S
C982        O983   1.281       .  A
C982        C984   1.506       .  S
C984        C985   1.417       .  A
C984        C989   1.417       .  A
C985        C986   1.412       .  A
C985        H990   1.084       .  S
C986       C1089   1.454       .  S
C986        C987   1.380       .  A
C987        C988   1.380       .  A
C987        H991   1.086       .  S
C988       C1067   1.454       .  S
C988        C989   1.412       .  A
C989        H992   1.084       .  S
C993        C994   1.416       .  A
C993        C998   1.417       .  A
C994        H999   1.083       .  S
C995       C1041   1.453       .  S
C995        C996   1.382       .  A
C996        C997   1.382       .  A
C996       H1000   1.087       .  S
C997       C1090   1.455       .  S
C998       H1001   1.083       .  S
C1002      C1003   1.416       .  A
C1002      C1007   1.417       .  A
C1003      H1008   1.083       .  S
C1004      C1043   1.453       .  S
C1004      C1005   1.382       .  A
C1005      C1006   1.382       .  A
C1005      H1009   1.087       .  S
C1006      C1066   1.455       .  S
C1007      H1010   1.083       .  S
C1011      N1012   1.371       .  A
C1011      N1016   1.372       .  A
N1012      C1013   1.366       .  A
C1013      C1112   1.472       .  S
C1013      N1014   1.344       .  A
N1014      C1015   1.351       .  A
C1015      C1208   1.463       .  S
C1015      N1016   1.367       .  A
C1017      N1018   1.372       .  A
C1017      N1022   1.372       .  A
N1018      C1019   1.367       .  A
C1019      C1113   1.473       .  S
C1019      N1020   1.344       .  A
N1020      C1021   1.350       .  A
C1021      C1165   1.462       .  S
C1021      N1022   1.367       .  A
O1023      C1039   1.260       .  A
O1023     Zn1029   1.898       .  S
C1024      O1040   1.258       .  A
C1024      O1037   1.271       .  A
C1024      C1047   1.470       .  S
O1025      C1038   1.271       .  A
O1026      C1044   1.281       .  A
O1026     Cd1035   2.087       .  S
O1027      C1041   1.276       .  A
O1027     Cd1031   2.053       .  S
O1028      C1039   1.263       .  A
O1028     Cd1031   2.094       .  S
Zn1029     O1034   1.809       .  S
O1030      C1041   1.277       .  A
O1030     Cd1035   2.067       .  S
Cd1031     O1033   2.053       .  S
Cd1031     O1034   2.026       .  S
Cd1032     O1036   2.067       .  S
Cd1032     O1045   2.087       .  S
Cd1032     O1034   2.022       .  S
O1033      C1043   1.276       .  A
O1034     Cd1035   2.022       .  S
O1036      C1043   1.277       .  A
C1038      O1042   1.258       .  A
C1038      C1085   1.470       .  S
C1039      C1108   1.456       .  S
C1044      O1045   1.281       .  A
C1044      C1229   1.461       .  S
O1046      C1062   1.258       .  A
C1047      O1063   1.258       .  A
C1047      O1060   1.271       .  A
O1048      C1061   1.263       .  A
O1048     Cd1055   2.092       .  S
O1049      C1067   1.277       .  A
O1049     Cd1058   2.065       .  S
O1050      C1064   1.281       .  A
O1050     Cd1054   2.088       .  S
O1051      C1062   1.271       .  A
Zn1052     O1063   1.887       .  S
Zn1052     O1065   1.898       .  S
Zn1052     O1057   1.809       .  S
O1053      C1064   1.281       .  A
O1053     Cd1058   2.088       .  S
Cd1054     O1056   2.067       .  S
Cd1054     O1057   2.022       .  S
Cd1055     O1059   2.058       .  S
Cd1055     O1068   2.055       .  S
Cd1055     O1057   2.027       .  S
O1056      C1066   1.277       .  A
O1057     Cd1058   2.023       .  S
Cd1058     O1060   2.138       .  S
O1059      C1066   1.277       .  A
C1061      O1065   1.260       .  A
C1061      C1107   1.455       .  S
C1062      C1070   1.468       .  S
C1064      C1223   1.462       .  S
C1067      O1068   1.277       .  A
O1069      C1085   1.258       .  A
O1069     Zn1075   1.887       .  S
C1070      O1086   1.258       .  A
C1070      O1083   1.271       .  A
O1071      C1084   1.263       .  A
O1071     Cd1078   2.092       .  S
O1072      C1090   1.277       .  A
O1072     Cd1081   2.067       .  S
O1073      C1087   1.281       .  A
O1073     Cd1077   2.088       .  S
O1074      C1085   1.271       .  A
O1074     Cd1077   2.138       .  S
Zn1075     O1088   1.898       .  S
Zn1075     O1080   1.809       .  S
O1076      C1087   1.281       .  A
O1076     Cd1081   2.088       .  S
Cd1077     O1079   2.065       .  S
Cd1077     O1080   2.023       .  S
Cd1078     O1082   2.055       .  S
Cd1078     O1091   2.058       .  S
Cd1078     O1080   2.027       .  S
O1079      C1089   1.277       .  A
O1080     Cd1081   2.022       .  S
O1082      C1089   1.277       .  A
C1084      O1088   1.260       .  A
C1084      C1093   1.455       .  S
C1087      C1215   1.462       .  S
C1090      O1091   1.277       .  A
O1092      C1108   1.252       .  A
C1093      O1109   1.252       .  A
C1093      O1106   1.267       .  A
O1094      C1107   1.267       .  A
O1094     Cd1101   2.115       .  S
O1095      C1113   1.282       .  A
O1096      C1110   1.282       .  A
O1097      C1108   1.267       .  A
O1097     Cd1100   2.118       .  S
Zn1098     O1103   1.812       .  S
O1099      C1110   1.283       .  A
O1099     Cd1104   2.099       .  S
Cd1101     O1105   2.099       .  S
O1102      C1112   1.282       .  A
Cd1104     O1106   2.115       .  S
O1105      C1112   1.283       .  A
C1107      O1111   1.252       .  A
C1110      C1117   1.472       .  S
C1113      O1114   1.282       .  A
C1115      N1116   1.371       .  A
C1115      N1120   1.372       .  A
N1116      C1117   1.366       .  A
C1117      N1118   1.344       .  A
N1118      C1119   1.351       .  A
C1119      C1185   1.463       .  S
C1119      N1120   1.367       .  A
O1121      C1137   1.252       .  A
O1121     Zn1127   1.856       .  S
C1122      O1138   1.252       .  A
C1122      O1135   1.267       .  A
C1122      C1205   1.455       .  S
O1123      C1136   1.267       .  A
O1123     Cd1130   2.116       .  S
O1124      C1142   1.282       .  A
O1125      C1139   1.282       .  A
O1126      C1137   1.267       .  A
O1126     Cd1129   2.117       .  S
Zn1127     O1132   1.813       .  S
O1128      C1139   1.283       .  A
O1128     Cd1133   2.098       .  S
Cd1129     O1132   2.032       .  S
Cd1130     O1134   2.098       .  S
O1131      C1141   1.282       .  A
Cd1133     O1135   2.116       .  S
O1134      C1141   1.283       .  A
C1136      O1140   1.252       .  A
C1136      C1182   1.455       .  S
C1137      C1160   1.456       .  S
C1139      C1221   1.472       .  S
C1141      C1217   1.472       .  S
C1142      O1143   1.282       .  A
C1142      C1227   1.473       .  S
O1144      C1160   1.260       .  A
O1144     Zn1150   1.898       .  S
C1145      O1161   1.258       .  A
C1145      O1158   1.271       .  A
C1145      C1168   1.470       .  S
O1146      C1159   1.271       .  A
O1147      C1165   1.281       .  A
O1147     Cd1156   2.088       .  S
O1148      C1162   1.276       .  A
O1148     Cd1152   2.052       .  S
O1149      C1160   1.263       .  A
O1149     Cd1152   2.095       .  S
Zn1150     O1155   1.809       .  S
O1151      C1162   1.277       .  A
O1151     Cd1156   2.066       .  S
Cd1152     O1154   2.052       .  S
Cd1152     O1155   2.026       .  S
Cd1153     O1157   2.066       .  S
Cd1153     O1166   2.088       .  S
Cd1153     O1155   2.022       .  S
O1154      C1164   1.276       .  A
O1155     Cd1156   2.022       .  S
O1157      C1164   1.277       .  A
C1159      O1163   1.258       .  A
C1159      C1206   1.470       .  S
C1162      C1256   1.453       .  S
C1164      C1265   1.453       .  S
C1165      O1166   1.281       .  A
O1167      C1183   1.258       .  A
C1168      O1184   1.258       .  A
C1168      O1181   1.270       .  A
O1169      C1182   1.263       .  A
O1169     Cd1176   2.093       .  S
O1170      C1188   1.277       .  A
O1170     Cd1179   2.065       .  S
O1171      C1185   1.281       .  A
O1171     Cd1175   2.089       .  S
O1172      C1183   1.271       .  A
Zn1173     O1184   1.886       .  S
Zn1173     O1186   1.897       .  S
Zn1173     O1178   1.809       .  S
O1174      C1185   1.281       .  A
O1174     Cd1179   2.088       .  S
Cd1175     O1177   2.067       .  S
Cd1175     O1178   2.022       .  S
Cd1176     O1180   2.058       .  S
Cd1176     O1189   2.055       .  S
Cd1176     O1178   2.027       .  S
O1177      C1187   1.277       .  A
O1178     Cd1179   2.023       .  S
Cd1179     O1181   2.137       .  S
O1180      C1187   1.277       .  A
C1182      O1186   1.259       .  A
C1183      C1191   1.467       .  S
C1187      C1267   1.455       .  S
C1188      O1189   1.277       .  A
C1188      C1274   1.454       .  S
O1190      C1206   1.258       .  A
O1190     Zn1196   1.886       .  S
C1191      O1207   1.258       .  A
C1191      O1204   1.271       .  A
O1192      C1205   1.263       .  A
O1192     Cd1199   2.093       .  S
O1193      C1211   1.277       .  A
O1193     Cd1202   2.067       .  S
O1194      C1208   1.281       .  A
O1194     Cd1198   2.088       .  S
O1195      C1206   1.270       .  A
O1195     Cd1198   2.137       .  S
Zn1196     O1209   1.897       .  S
Zn1196     O1201   1.809       .  S
O1197      C1208   1.281       .  A
O1197     Cd1202   2.089       .  S
Cd1198     O1200   2.065       .  S
Cd1198     O1201   2.023       .  S
Cd1199     O1203   2.055       .  S
Cd1199     O1212   2.058       .  S
Cd1199     O1201   2.027       .  S
O1200      C1210   1.277       .  A
O1201     Cd1202   2.022       .  S
O1203      C1210   1.277       .  A
C1205      O1209   1.259       .  A
C1210      C1276   1.454       .  S
C1211      O1212   1.277       .  A
C1211      C1258   1.455       .  S
C1213      C1246   1.499       .  S
C1213      N1214   1.371   1_556  A
C1213      N1218   1.371       .  A
N1214      C1215   1.366       .  A
C1215      N1216   1.351       .  A
N1216      C1217   1.344   1_554  A
C1217      N1218   1.366       .  A
C1219      C1232   1.499       .  S
C1219      N1220   1.371       .  A
C1219      N1224   1.371   1_556  A
N1220      C1221   1.366       .  A
C1221      N1222   1.344   1_556  A
N1222      C1223   1.351       .  A
C1223      N1224   1.366       .  A
C1225      C1247   1.500       .  S
C1225      N1226   1.372       .  A
C1225      N1230   1.371   1_556  A
N1226      C1227   1.367       .  A
C1227      N1228   1.344   1_556  A
N1228      C1229   1.350       .  A
C1229      N1230   1.366       .  A
O1231      C1247   1.283       .  A
O1231     Zn1237   2.088       .  S
C1232      O1248   1.282       .  A
C1232      O1245   1.281       .  A
O1233      C1246   1.281       .  A
O1233     Cd1240   2.112       .  S
O1234      C1252   1.281       .  A
O1234     Cd1243   2.113       .  S
O1235      C1249   1.281       .  A
O1235     Cd1239   2.109       .  S
O1236      C1247   1.281       .  A
O1236     Cd1239   2.112       .  S
Zn1237     O1248   2.083       .  S
Zn1237     O1250   2.083       .  S
Zn1237     O1242   1.993       .  S
O1238      C1249   1.281       .  A
O1238     Cd1243   2.112       .  S
Cd1239     O1241   2.109       .  S
Cd1239     O1242   2.034       .  S
Cd1240     O1244   2.112       .  S
Cd1240     O1253   2.113       .  S
Cd1240     O1242   2.033       .  S
O1241      C1251   1.281       .  A
O1242     Cd1243   2.033       .  S
Cd1243     O1245   2.112       .  S
O1244      C1251   1.281       .  A
C1246      O1250   1.282       .  A
C1249      C1263   1.504       .  S
C1251      C1254   1.504       .  S
C1252      O1253   1.281       .  A
C1252      C1272   1.506       .  S
C1254      C1255   1.415       .  A
C1254      C1259   1.417       .  A
C1255      H1260   1.083       .  S
C1256      C1257   1.382       .  A
C1257      C1258   1.382       .  A
C1257      H1261   1.087       .  S
C1259      H1262   1.083       .  S
C1263      C1264   1.415       .  A
C1263      C1268   1.417       .  A
C1264      H1269   1.083       .  S
C1265      C1266   1.382       .  A
C1266      C1267   1.382       .  A
C1266      H1270   1.086       .  S
C1268      H1271   1.083       .  S
C1272      C1273   1.417       .  A
C1272      C1277   1.417       .  A
C1273      C1274   1.412       .  A
C1273      H1278   1.084       .  S
C1274      C1275   1.380       .  A
C1275      C1276   1.380       .  A
C1275      H1279   1.087       .  S
C1276      C1277   1.412       .  A
C1277      H1280   1.084       .  S
