geometry optimzed in LAMMPS
_audit_creation_date              2020-11-30 
_audit_creation_method            'lammps2cif' 
_symmetry_space_group_name_H-M    'P1' 
_symmetry_Int_Tables_number       1 
_symmetry_cell_setting            triclinic 
loop_ 
_symmetry_equiv_pos_as_xyz 
  x,y,z 
_cell_length_a                    27.30921198328894 
_cell_length_b                    51.113290765373144 
_cell_length_c                    44.36164831532315 
_cell_angle_alpha                 89.98408819069039 
_cell_angle_beta                  90.00476841685126 
_cell_angle_gamma                 89.8569849896368 
loop_ 
_atom_site_label 
_atom_site_type_symbol 
_atom_site_fract_x 
_atom_site_fract_y 
_atom_site_fract_z 
_atom_site_charge 
O1          O  0.46045336  0.00025219  0.04534465    -0.72790
O2          O  0.45971530  0.00064749  0.45482487    -0.73770
O3          O  0.45929143  0.96109282  0.49987200    -0.62390
O4          O  0.46068930  0.03965423  0.00028079    -0.70800
O5          O  0.54198083  0.03921033  0.99977251    -0.70350
O6          O  0.54058865  0.96061493  0.49984777    -0.61600
O7          O  0.54085385  0.99980791  0.45457383    -0.74110
O8          O  0.54157286  0.99983620  0.04507993    -0.72890
Cu9        Cu  0.45721548  0.00042387  0.50009256     1.04560
Cu10       Cu  0.54407089  0.99985633  0.99981509     1.04330
C11         C  0.50114857  0.99998849  0.05959829     0.93410
C12         C  0.50016114  0.00027966  0.44033122     0.92550
C13         C  0.49974717  0.94849102  0.99980807     0.84700
C14         C  0.50150725  0.05179799  0.50002844     0.90970
O15         O  0.54155983  0.99981771  0.29517526    -0.72790
O16         O  0.54083767  0.00009537  0.20465324    -0.73770
O17         O  0.54138104  0.03935649  0.25003523    -0.62390
O18         O  0.54111309  0.96075316  0.24981432    -0.70800
O19         O  0.45981230  0.96099416  0.25014621    -0.70350
O20         O  0.46008241  0.03953285  0.25019210    -0.61600
O21         O  0.45971567  0.00035579  0.20490802    -0.74110
O22         O  0.46040931  0.00029602  0.29541252    -0.72890
Cu23       Cu  0.54405494  0.00001015  0.24990768     1.04560
Cu24       Cu  0.45719222  0.00029567  0.25016899     1.04330
C25         C  0.50110322  0.99997789  0.30966023     0.93410
C26         C  0.50014579  0.00025996  0.19039519     0.92550
C27         C  0.50075240  0.05180987  0.25013817     0.84700
C28         C  0.50039512  0.94851367  0.24999985     0.90970
N29         N  0.42394909  0.21443389  0.50044730    -0.27130
N30         N  0.40127218  0.19166788  0.50126799    -0.34990
C31         C  0.35270157  0.19570836  0.50140539     0.01210
C32         C  0.34372138  0.22245466  0.50037113     0.07230
C33         C  0.39017250  0.23362738  0.49983974    -0.05870
H34         H  0.32649330  0.17999180  0.50253378     0.07900
H35         H  0.39914140  0.25421045  0.49890918     0.09100
Cu36       Cu  0.43616227  0.15573038  0.50157156     0.44170
Cu37       Cu  0.49978824  0.21809360  0.50045550     0.41990
Cu38       Cu  0.56654729  0.15595167  0.99853543     0.43880
N39         N  0.47752396  0.12181221  0.50056451    -0.34520
N40         N  0.52585753  0.12180355  0.99944436    -0.28770
C41         C  0.54200587  0.09690885  0.99911430    -0.04870
C42         C  0.50174769  0.08053676  0.00002030     0.07340
C43         C  0.46148638  0.09697163  0.50090506     0.01140
H44         H  0.58015032  0.09118481  0.99826372     0.08790
H45         H  0.42335447  0.09132420  0.50176855     0.07870
N46         N  0.59950894  0.19241979  0.49900721    -0.35970
N47         N  0.57574647  0.21494841  0.50011605    -0.28150
C48         C  0.60854415  0.23454970  0.50073681    -0.03390
C49         C  0.65543640  0.22389046  0.49976738     0.05220
C50         C  0.64786034  0.19707328  0.49872172     0.03310
H51         H  0.59845945  0.25495617  0.50225193     0.08420
H52         H  0.67533579  0.18185294  0.99760776     0.07250
N53         N  0.57529778  0.21459505  0.24953313    -0.27130
N54         N  0.59910102  0.19210132  0.24986501    -0.34990
C55         C  0.64740649  0.19681381  0.25008071     0.01210
C56         C  0.65491920  0.22370879  0.24987528     0.07230
C57         C  0.60787362  0.23425807  0.24953317    -0.05870
H58         H  0.67471902  0.18151738  0.25036826     0.07900
H59         H  0.59721432  0.25458402  0.24926732     0.09100
Cu60       Cu  0.56576352  0.15578134  0.25001020     0.44170
Cu61       Cu  0.49966628  0.21762802  0.24914251     0.41990
Cu62       Cu  0.43456730  0.15573252  0.25076339     0.43880
N63         N  0.52462987  0.12182532  0.25018388    -0.34520
N64         N  0.47624512  0.12181306  0.25045844    -0.28770
C65         C  0.46031883  0.09693798  0.25046592    -0.04870
C66         C  0.50069496  0.08054721  0.25020205     0.07340
C67         C  0.54087670  0.09695925  0.25002830     0.01140
H68         H  0.42219370  0.09123482  0.25065573     0.08790
H69         H  0.57907187  0.09128354  0.24979952     0.07870
N70         N  0.40057563  0.19200762  0.25040001    -0.35970
N71         N  0.42407337  0.21452299  0.24951294    -0.28150
C72         C  0.39123951  0.23415026  0.24912937    -0.03390
C73         C  0.34435776  0.22356245  0.24995552     0.05220
C74         C  0.35219669  0.19668336  0.25073541     0.03310
H75         H  0.40156058  0.25448689  0.24807557     0.08420
H76         H  0.32502048  0.18139837  0.25160158     0.07250
N77         N  0.57566690  0.78547301  0.50091989    -0.27130
N78         N  0.59836317  0.80823052  0.49991929    -0.34990
C79         C  0.64691145  0.80420702  0.49939383     0.01210
C80         C  0.65602878  0.77746422  0.50021620     0.07230
C81         C  0.60952093  0.76628903  0.50113630    -0.05870
H82         H  0.67292886  0.81999798  0.49831529     0.07900
H83         H  0.60053417  0.74570803  0.50196949     0.09100
Cu84       Cu  0.56398886  0.84429007  0.49946294     0.44170
Cu85       Cu  0.49962719  0.78186692  0.50160042     0.41990
Cu86       Cu  0.43426806  0.84449195  0.99819722     0.43880
N87         N  0.52332499  0.87843706  0.49938570    -0.34520
N88         N  0.47498371  0.87856625  0.99892216    -0.28770
C89         C  0.45899984  0.90348268  0.99907859    -0.04870
C90         C  0.49939912  0.91975970  0.99963066     0.07340
C91         C  0.53957747  0.90323913  0.49981510     0.01140
H92         H  0.42087370  0.90928449  0.99877124     0.08790
H93         H  0.57777254  0.90880046  0.50021870     0.07870
N94         N  0.40053917  0.80829361  0.49897828    -0.35970
N95         N  0.42356983  0.78557994  0.00071218    -0.28150
C96         C  0.39000573  0.76634460  0.00139255    -0.03390
C97         C  0.34344224  0.77744050  0.50000388     0.05220
C98         C  0.35204383  0.80414912  0.49831895     0.03310
H99         H  0.39911422  0.74578098  0.50299419     0.08420
H100        H  0.32554564  0.81974392  0.99632078     0.07250
N101        N  0.57644573  0.78549744  0.24933057    -0.27130
N102        N  0.59917949  0.80824273  0.25046344    -0.34990
C103        C  0.64771692  0.80419199  0.25098519     0.01210
C104        C  0.65676316  0.77745725  0.24994535     0.07230
C105        C  0.61026376  0.76629949  0.24896722    -0.05870
H106        H  0.67379794  0.81994415  0.25228638     0.07900
H107        H  0.60127861  0.74572308  0.24794126     0.09100
Cu108      Cu  0.56495593  0.84433950  0.25088926     0.44170
Cu109      Cu  0.50043451  0.78188247  0.24868551     0.41990
Cu110      Cu  0.43529197  0.84452480  0.25091130     0.43880
N111        N  0.52432195  0.87849190  0.25054767    -0.34520
N112        N  0.47597776  0.87858408  0.25057416    -0.28770
C113        C  0.45991882  0.90347760  0.25031748    -0.04870
C114        C  0.50026331  0.91978895  0.25011889     0.07340
C115        C  0.54050921  0.90331153  0.25026451     0.01140
H116        H  0.42177016  0.90924054  0.25030937     0.08790
H117        H  0.57869066  0.90891170  0.25021739     0.07870
N118        N  0.40144575  0.80838232  0.25045834    -0.35970
N119        N  0.42440948  0.78563630  0.24933280    -0.28150
C120        C  0.39079803  0.76642995  0.24897132    -0.03390
C121        C  0.34418312  0.77756186  0.24994264     0.05220
C122        C  0.35294123  0.80430569  0.25096980     0.03310
H123        H  0.40001612  0.74586016  0.24795469     0.08420
H124        H  0.32667580  0.82004252  0.25224962     0.07250
N125        N  0.92431144  0.71451928  0.49907679    -0.27130
N126        N  0.90161311  0.69176103  0.50005128    -0.34990
C127        C  0.85306534  0.69578608  0.50057639     0.01210
C128        C  0.84395024  0.72252992  0.99978142     0.07230
C129        C  0.89045906  0.73370424  0.49887739    -0.05870
H130        H  0.82704704  0.67999464  0.50163115     0.07900
H131        H  0.89944812  0.75428570  0.49806596     0.09100
Cu132      Cu  0.93596948  0.65569371  0.50046607     0.44170
Cu133      Cu  0.00034961  0.71813434  0.49840410     0.41990
Cu134      Cu  0.06568903  0.65552585  0.50183489     0.43880
N135        N  0.97665997  0.62155330  0.50051145    -0.34520
N136        N  0.02500000  0.62144485  0.50102861    -0.28770
C137        C  0.04102317  0.59653743  0.50085349    -0.04870
C138        C  0.00065548  0.58024102  0.50022619     0.07340
C139        C  0.96044790  0.59674245  0.50002225     0.01140
H140        H  0.07915815  0.59075396  0.50120306     0.08790
H141        H  0.92226362  0.59116268  0.49957965     0.07870
N142        N  0.09943627  0.69171783  0.50105133    -0.35970
N143        N  0.07640713  0.71443060  0.99930200    -0.28150
C144        C  0.10997173  0.73366528  0.99861015    -0.03310
C145        C  0.15653458  0.72256915  0.00000686     0.05220
C146        C  0.14793223  0.69586146  0.50170891     0.03310
H147        H  0.10086462  0.75422818  0.99699373     0.08420
H148        H  0.17443109  0.68026749  0.00371508     0.07250
N149        N  0.92486164  0.71452025  0.25064575    -0.27130
N150        N  0.90213184  0.69177677  0.24947130    -0.34990
C151        C  0.85359388  0.69582186  0.24895176     0.01210
C152        C  0.84454223  0.72255340  0.25003611     0.07230
C153        C  0.89103884  0.73371491  0.25103830    -0.05870
H154        H  0.82751610  0.68006962  0.24761675     0.07900
H155        H  0.90001757  0.75429028  0.25209997     0.09100
Cu156      Cu  0.93638090  0.65569983  0.24899081     0.44170
Cu157      Cu  0.00087570  0.71811648  0.25130408     0.41990
Cu158      Cu  0.06604443  0.65543578  0.24917154     0.43880
N159        N  0.97692866  0.62153251  0.24935316    -0.34520
N160        N  0.02527246  0.62139281  0.24943843    -0.28770
C161        C  0.04122970  0.59647864  0.24972341    -0.04870
C162        C  0.00081133  0.58021241  0.24980912     0.07340
C163        C  0.96063986  0.59673414  0.24957596     0.01140
H164        H  0.07935624  0.59067054  0.24981943     0.08790
H165        H  0.92243689  0.59117929  0.24954354     0.07870
N166        N  0.09986613  0.69159650  0.24958446    -0.35970
N167        N  0.07689866  0.71434418  0.25067118    -0.28150
C168        C  0.11050587  0.73355345  0.25100531    -0.03390
C169        C  0.15712325  0.72242497  0.25005630     0.05220
C170        C  0.14837011  0.69567829  0.24907086     0.03310
H171        H  0.10128199  0.75412418  0.25198784     0.08420
H172        H  0.17463847  0.67994164  0.24782087     0.07250
N173        N  0.07611622  0.28552603  0.49955304    -0.27130
N174        N  0.09881360  0.30828618  0.49876108    -0.34990
C175        C  0.14737792  0.30423780  0.49861991     0.01210
C176        C  0.15634041  0.27749027  0.49962422     0.07230
C177        C  0.10988034  0.26632481  0.50013959    -0.05870
H178        H  0.17359046  0.31995283  0.49751247     0.07900
H179        H  0.10089893  0.24574267  0.50104543     0.09100
Cu180      Cu  0.06398586  0.34423015  0.49850483     0.44170
Cu181      Cu  0.00026949  0.28190238  0.49953428     0.41990
Cu182      Cu  0.93359724  0.34408545  0.50136693     0.43880
N183        N  0.02272975  0.37817197  0.49950707    -0.34520
N184        N  0.97439034  0.37821020  0.50052527    -0.28770
C185        C  0.95830908  0.40311557  0.50083390    -0.04870
C186        C  0.99861627  0.41946127  0.50003647     0.07340
C187        C  0.03883938  0.40300128  0.49922871     0.01140
H188        H  0.92017282  0.40886688  0.50160339     0.08790
H189        H  0.07698802  0.40862177  0.49843673     0.07870
N190        N  0.90057660  0.30762336  0.50093270    -0.35970
N191        N  0.92431599  0.28508604  0.49985767    -0.28150
C192        C  0.89150155  0.26549298  0.49926224    -0.03390
C193        C  0.84461787  0.27616313  0.50021557     0.05220
C194        C  0.85221844  0.30298093  0.50122332     0.03310
H195        H  0.90157316  0.24508329  0.49777593     0.08420
H196        H  0.82475476  0.31820867  0.50231503     0.07250
N197        N  0.07499895  0.28536220  0.25047934    -0.27130
N198        N  0.09854802  0.30786002  0.24960032    -0.34990
C199        C  0.14691151  0.30316087  0.24925522     0.01210
C200        C  0.15469957  0.27627935  0.25002288     0.07230
C201        C  0.10779546  0.26571385  0.25084818    -0.05870
H202        H  0.17410758  0.31843506  0.24839427     0.07900
H203        H  0.09744356  0.24538082  0.25189174     0.09100
Cu204      Cu  0.06465761  0.34414323  0.24927303     0.44170
Cu205      Cu  0.99938959  0.28237519  0.25085881     0.41990
Cu206      Cu  0.93346026  0.34435043  0.24994561     0.43880
N207        N  0.02324997  0.37813553  0.24961987    -0.34520
N208        N  0.97486442  0.37823439  0.24984966    -0.28770
C209        C  0.95884138  0.40314244  0.25002909    -0.04870
C210        C  0.99917462  0.41945675  0.24992487     0.07340
C211        C  0.03940046  0.40296825  0.24967185     0.01140
H212        H  0.92069511  0.40891503  0.25022239     0.08790
H213        H  0.07757568  0.40857443  0.24951418     0.07870
N214        N  0.90002194  0.30803726  0.25009523    -0.35970
N215        N  0.92377418  0.28552602  0.25045210    -0.28150
C216        C  0.89116150  0.26588352  0.25046443    -0.03390
C217        C  0.84413802  0.27645462  0.25010324     0.05220
C218        C  0.85170112  0.30334745  0.24987440     0.03310
H219        H  0.90179101  0.24555397  0.25075472     0.08420
H220        H  0.82440773  0.31865438  0.24956960     0.07250
O221        O  0.03981175  0.49968415  0.04535206    -0.72790
O222        O  0.04065697  0.49963143  0.45492213    -0.73770
O223        O  0.04090059  0.53895670  0.50014016    -0.62390
O224        O  0.03967015  0.46037468  0.50013290    -0.70800
O225        O  0.95837610  0.46075520  0.49987676    -0.70350
O226        O  0.95960525  0.53933357  0.49987220    -0.61600
O227        O  0.95954855  0.50008951  0.45461571    -0.74110
O228        O  0.95870409  0.50003070  0.04508231    -0.72890
Cu229      Cu  0.04307946  0.49964408  0.50014387     1.04560
Cu230      Cu  0.95623650  0.50007030  0.49984558     1.04330
C231        C  0.99912505  0.49985490  0.05960318     0.93410
C232        C  0.00025945  0.49984578  0.44038402     0.92550
C233        C  0.00039615  0.55150884  0.50004821     0.84700
C234        C  0.99887194  0.44819916  0.50001597     0.90970
O235        O  0.04001815  0.49961293  0.29537444    -0.72790
O236        O  0.04086668  0.49976631  0.20490936    -0.73770
O237        O  0.04103933  0.53895299  0.25018519    -0.62390
O238        O  0.04011283  0.46040168  0.25006522    -0.70800
O239        O  0.95881723  0.46071752  0.24994301    -0.70350
O240        O  0.95974252  0.53930458  0.24975962    -0.61600
O241        O  0.95975807  0.49995754  0.20463771    -0.74110
O242        O  0.95891039  0.50012689  0.29506903    -0.72890
Cu243      Cu  0.04332895  0.49966567  0.25014865     1.04560
Cu244      Cu  0.95648421  0.50003660  0.24984525     1.04330
C245        C  0.99930945  0.49990820  0.30960642     0.93410
C246        C  0.00044628  0.49989440  0.19038722     0.92550
C247        C  0.00052588  0.55148871  0.24994034     0.84700
C248        C  0.99935788  0.44819404  0.24998936     0.90970
C249        C  0.95612110  0.50255592  0.39105947    -0.21150
C250        C  0.00040807  0.49985162  0.40692477    -0.09190
C251        C  0.04424119  0.49719418  0.39043628     0.29670
C252        C  0.04346002  0.49727266  0.35893078    -0.21150
C253        C  0.99916888  0.49995591  0.34306538    -0.09200
C254        C  0.95534176  0.50264195  0.35955351     0.29670
F255        F  0.91160289  0.50555052  0.34539644    -0.19730
H256        H  0.92181146  0.50472532  0.40303854     0.18040
H257        H  0.07777115  0.49510624  0.34695236     0.18040
F258        F  0.08798712  0.49431248  0.40459225    -0.19720
C259        C  0.04355981  0.50152625  0.10888286    -0.21150
C260        C  0.99906258  0.49987749  0.09306432    -0.09190
C261        C  0.95512330  0.49827293  0.10960231     0.29670
C262        C  0.95600798  0.49832104  0.14110604    -0.21150
C263        C  0.00050785  0.49994174  0.15692542    -0.09200
C264        C  0.04444350  0.50158339  0.14038744     0.29670
F265        F  0.08841199  0.50338512  0.15449156    -0.19730
H266        H  0.07797185  0.50285579  0.09686966     0.18040
H267        H  0.92159447  0.49699581  0.15311758     0.18040
F268        F  0.91115036  0.49650013  0.09549865    -0.19720
C269        C  0.29466425  0.73628759  0.25204114    -0.21150
C270        C  0.29600655  0.76371928  0.24996435    -0.09190
C271        C  0.25101696  0.77728649  0.24789701     0.29670
C272        C  0.20663951  0.76370484  0.24794766    -0.21150
C273        C  0.20529772  0.73627212  0.25002610    -0.09200
C274        C  0.25028872  0.72270635  0.25209075     0.29670
F275        F  0.25229275  0.69631253  0.25453633    -0.19730
H276        H  0.32804999  0.72500850  0.25388053     0.18040
H277        H  0.17325277  0.77498378  0.24611011     0.18040
F278        F  0.24901886  0.80368064  0.24544649    -0.19720
C279        C  0.70682583  0.73624437  0.25212535    -0.21150
C280        C  0.70511366  0.76366638  0.24996207    -0.09190
C281        C  0.74991654  0.77728394  0.24781015     0.29670
C282        C  0.79447677  0.76376009  0.24786491    -0.21150
C283        C  0.79618949  0.73633924  0.25002694    -0.09200
C284        C  0.75138816  0.72272008  0.25218115     0.29670
F285        F  0.74975430  0.69633150  0.25473924    -0.19730
H286        H  0.67358857  0.72493481  0.25403693     0.18040
H287        H  0.82771297  0.77506978  0.24595136     0.18040
F288        F  0.75155689  0.80367215  0.24525699    -0.19720
C289        C  0.20630233  0.76352755  0.00481747    -0.21150
C290        C  0.20462775  0.73637992  0.99994139    -0.09190
C291        C  0.24919321  0.72298783  0.49506173     0.29670
C292        C  0.29367404  0.73648165  0.49518495    -0.21150
C293        C  0.29534887  0.76362934  0.00006289    -0.09200
C294        C  0.25078256  0.77702131  0.00494065     0.29670
F295        F  0.24954207  0.80307358  0.01055127    -0.19730
H296        H  0.17312702  0.77453025  0.00900802     0.18040
H297        H  0.32684940  0.72547880  0.49099479     0.18040
F298        F  0.25043112  0.69693559  0.48944993    -0.19720
C299        C  0.70611086  0.73620197  0.49900377    -0.21150
C300        C  0.70442605  0.76367437  0.00009638    -0.09190
C301        C  0.74930801  0.77732640  0.00110104     0.29670
C302        C  0.79386912  0.76379365  0.00099807    -0.21150
C303        C  0.79555378  0.73632098  0.99990468    -0.09200
C304        C  0.75067141  0.72266930  0.49890166     0.29670
F305        F  0.74890222  0.69621930  0.49758321    -0.19730
H306        H  0.67284307  0.72483195  0.49807160     0.18040
H307        H  0.82713715  0.77516369  0.00192943     0.18040
F308        F  0.75107524  0.80377643  0.00242396    -0.19720
C309        C  0.74677600  0.22291930  0.25001843    -0.21150
C310        C  0.70304210  0.23753706  0.24994485    -0.09190
C311        C  0.70655664  0.26505729  0.24992221     0.29670
C312        C  0.75226916  0.27725572  0.24996717    -0.21150
C313        C  0.79600301  0.26263603  0.25003897    -0.09200
C314        C  0.79248357  0.23511555  0.25006217     0.29670
F315        F  0.83271592  0.21956839  0.25009535    -0.19730
H316        H  0.74622916  0.20181037  0.25001816     0.18040
H317        H  0.75282679  0.29836494  0.24996854     0.18040
F318        F  0.66631403  0.28059733  0.24988448    -0.19720
C319        C  0.25259296  0.22281953  0.24763373    -0.21150
C320        C  0.29610500  0.23736988  0.24992700    -0.09190
C321        C  0.29228161  0.26481090  0.25227678     0.29670
C322        C  0.24645240  0.27701032  0.25234455    -0.21150
C323        C  0.20294028  0.26246200  0.25005017    -0.09200
C324        C  0.20675887  0.23502117  0.24770060     0.29670
F325        F  0.16669658  0.21961227  0.24510599    -0.19730
H326        H  0.25348769  0.20177827  0.24553756     0.18040
H327        H  0.24556810  0.29805114  0.25444385     0.18040
F328        F  0.33233382  0.28022654  0.25487361    -0.19720
C329        C  0.75350543  0.27660057  0.49344248    -0.21150
C330        C  0.79648871  0.26247515  0.50001423    -0.09190
C331        C  0.79234778  0.23560201  0.00659036     0.29670
C332        C  0.74653842  0.22345880  0.00656009    -0.21150
C333        C  0.70355727  0.23758331  0.49998448    -0.09200
C334        C  0.70769490  0.26445644  0.49341206     0.29670
F335        F  0.66797265  0.27912838  0.48619617    -0.19730
H336        H  0.75505104  0.29717319  0.48784396     0.18040
H337        H  0.74499273  0.20288597  0.01215950     0.18040
F338        F  0.83206532  0.22092653  0.01380564    -0.19720
C339        C  0.20636194  0.23637916  0.49599876    -0.21150
C340        C  0.20457725  0.26365975  0.49986422    -0.09190
C341        C  0.24917317  0.27711515  0.00390694     0.29670
C342        C  0.29369585  0.26356324  0.00399181    -0.21150
C343        C  0.29548139  0.23628276  0.50012709    -0.09200
C344        C  0.25088662  0.22282714  0.49608340     0.29670
F345        F  0.24953990  0.19661699  0.49164618    -0.19730
H346        H  0.17323879  0.22524897  0.49252472     0.18040
H347        H  0.32681753  0.27469413  0.00746756     0.18040
F348        F  0.25052665  0.30332536  0.00834293    -0.19720
C349        C  0.54275202  0.99334508  0.39106752    -0.21150
C350        C  0.50007300  0.00027853  0.40690159    -0.09190
C351        C  0.45781755  0.00708215  0.39043392     0.29670
C352        C  0.45848631  0.00682777  0.35891919    -0.21150
C353        C  0.50117588  0.99992058  0.34308671    -0.09200
C354        C  0.54341928  0.99309033  0.35955077     0.29670
F355        F  0.58520291  0.98567359  0.34531936    -0.19730
H356        H  0.57570034  0.98782732  0.40309979     0.18040
H357        H  0.42553848  0.01234207  0.34688593     0.18040
F358        F  0.41601361  0.01447448  0.40465774    -0.19720
C359        C  0.54384451  0.99576705  0.14108195    -0.21150
C360        C  0.50004611  0.00024695  0.15693151    -0.09190
C361        C  0.45670134  0.00461111  0.14042965     0.29670
C362        C  0.45744980  0.00441844  0.10891436    -0.21150
C363        C  0.50125150  0.99995506  0.09306306    -0.09200
C364        C  0.54459079  0.99556679  0.10956479     0.29670
F365        F  0.58772605  0.99074610  0.09539495    -0.19730
H366        H  0.57773221  0.99220734  0.15309090     0.18040
H367        H  0.42355951  0.00797654  0.09690880     0.18040
F368        F  0.41355813  0.00941205  0.15459855    -0.19720
O369        O  0.46045337  0.00025220  0.54534465    -0.72790
O370        O  0.45971529  0.00064750  0.95482487    -0.73770
O371        O  0.45929142  0.96109282  0.99987199    -0.62390
O372        O  0.46068931  0.03965423  0.50028077    -0.70800
O373        O  0.54198084  0.03921033  0.49977250    -0.70350
O374        O  0.54058864  0.96061493  0.99984776    -0.61600
O375        O  0.54085384  0.99980791  0.95457383    -0.74110
O376        O  0.54157287  0.99983620  0.54507994    -0.72890
Cu377      Cu  0.45721548  0.00042387  0.00009256     1.04560
Cu378      Cu  0.54407090  0.99985633  0.49981509     1.04330
C379        C  0.50114858  0.99998851  0.55959829     0.93410
C380        C  0.50016113  0.00027967  0.94033122     0.92550
C381        C  0.49974717  0.94849102  0.49980808     0.84700
C382        C  0.50150723  0.05179799  0.00002845     0.90970
O383        O  0.54155982  0.99981771  0.79517527    -0.72790
O384        O  0.54083766  0.00009538  0.70465324    -0.73770
O385        O  0.54138104  0.03935650  0.75003523    -0.62390
O386        O  0.54111308  0.96075317  0.74981432    -0.70800
O387        O  0.45981229  0.96099416  0.75014622    -0.70350
O388        O  0.46008241  0.03953286  0.75019210    -0.61600
O389        O  0.45971566  0.00035579  0.70490802    -0.74110
O390        O  0.46040930  0.00029602  0.79541252    -0.72890
Cu391      Cu  0.54405494  0.00001016  0.74990768     1.04560
Cu392      Cu  0.45719221  0.00029567  0.75016900     1.04330
C393        C  0.50110321  0.99997790  0.80966023     0.93410
C394        C  0.50014578  0.00025996  0.69039519     0.92550
C395        C  0.50075239  0.05180987  0.75013817     0.84700
C396        C  0.50039511  0.94851367  0.74999986     0.90970
N397        N  0.42394907  0.21443389  0.00044728    -0.27130
N398        N  0.40127216  0.19166787  0.00126805    -0.34990
C399        C  0.35270155  0.19570836  0.00140548     0.01210
C400        C  0.34372136  0.22245466  0.00037117     0.07230
C401        C  0.39017248  0.23362737  0.99983971    -0.05870
H402        H  0.32649327  0.17999181  0.00253394     0.07900
H403        H  0.39914138  0.25421045  0.99890909     0.09100
Cu404      Cu  0.43616225  0.15573038  0.00157165     0.44170
Cu405      Cu  0.49978821  0.21809360  0.00045542     0.41990
Cu406      Cu  0.56654730  0.15595167  0.49853549     0.43880
N407        N  0.47752394  0.12181221  0.00056456    -0.34520
N408        N  0.52585754  0.12180355  0.49944436    -0.28770
C409        C  0.54200589  0.09690885  0.49911432    -0.04870
C410        C  0.50174770  0.08053676  0.50002028     0.07340
C411        C  0.46148636  0.09697163  0.00090512     0.01140
H412        H  0.58015034  0.09118481  0.49826379     0.08790
H413        H  0.42335446  0.09132420  0.00176866     0.07870
N414        N  0.59950892  0.19241979  0.99900715    -0.35970
N415        N  0.57574644  0.21494841  0.00011597    -0.28150
C416        C  0.60854412  0.23454970  0.00073675    -0.03390
C417        C  0.65543638  0.22389047  0.99976734     0.05220
C418        C  0.64786032  0.19707328  0.99872168     0.03310
H419        H  0.59845941  0.25495617  0.00225187     0.08420
H420        H  0.67533581  0.18185294  0.49760778     0.07250
N421        N  0.57529778  0.21459505  0.74953314    -0.27130
N422        N  0.59910101  0.19210132  0.74986501    -0.34990
C423        C  0.64740648  0.19681382  0.75008073     0.01210
C424        C  0.65491919  0.22370880  0.74987531     0.07230
C425        C  0.60787362  0.23425808  0.74953319    -0.05870
H426        H  0.67471902  0.18151738  0.75036827     0.07900
H427        H  0.59721431  0.25458402  0.74926735     0.09100
Cu428      Cu  0.56576352  0.15578134  0.75001019     0.44170
Cu429      Cu  0.49966628  0.21762802  0.74914251     0.41990
Cu430      Cu  0.43456731  0.15573253  0.75076343     0.43880
N431        N  0.52462987  0.12182532  0.75018388    -0.34520
N432        N  0.47624512  0.12181307  0.75045846    -0.28770
C433        C  0.46031883  0.09693798  0.75046594    -0.04870
C434        C  0.50069496  0.08054722  0.75020205     0.07340
C435        C  0.54087670  0.09695926  0.75002829     0.01140
H436        H  0.42219370  0.09123483  0.75065577     0.08790
H437        H  0.57907187  0.09128355  0.74979949     0.07870
N438        N  0.40057563  0.19200762  0.75040003    -0.35970
N439        N  0.42407337  0.21452299  0.74951294    -0.28150
C440        C  0.39123951  0.23415026  0.74912936    -0.03390
C441        C  0.34435776  0.22356245  0.74995552     0.05220
C442        C  0.35219669  0.19668336  0.75073543     0.03310
H443        H  0.40156058  0.25448689  0.74807555     0.08420
H444        H  0.32502049  0.18139837  0.75160161     0.07250
N445        N  0.57566692  0.78547302  0.00091992    -0.27130
N446        N  0.59836319  0.80823052  0.99991924    -0.34990
C447        C  0.64691147  0.80420702  0.99939376     0.01210
C448        C  0.65602880  0.77746422  0.00021620     0.07230
C449        C  0.60952095  0.76628904  0.00113636    -0.05870
H450        H  0.67292888  0.81999798  0.99831513     0.07900
H451        H  0.60053420  0.74570804  0.00196962     0.09100
Cu452      Cu  0.56398887  0.84429008  0.99946286     0.44170
Cu453      Cu  0.49962721  0.78186693  0.00160047     0.41990
Cu454      Cu  0.43426805  0.84449195  0.49819725     0.43880
N455        N  0.52332500  0.87843706  0.99938565    -0.34520
N456        N  0.47498371  0.87856625  0.49892220    -0.28770
C457        C  0.45899984  0.90348268  0.49907862    -0.04870
C458        C  0.49939912  0.91975970  0.49963069     0.07340
C459        C  0.53957748  0.90323913  0.99981505     0.01140
H460        H  0.42087370  0.90928449  0.49877125     0.08790
H461        H  0.57777254  0.90880046  0.00021864     0.07870
N462        N  0.40053918  0.80829361  0.99897827    -0.35970
N463        N  0.42356982  0.78557994  0.50071216    -0.28150
C464        C  0.39000572  0.76634459  0.50139251    -0.03390
C465        C  0.34344226  0.77744050  0.00000388     0.05220
C466        C  0.35204384  0.80414911  0.99831893     0.03310
H467        H  0.39911423  0.74578098  0.00299426     0.08420
H468        H  0.32554563  0.81974393  0.49632084     0.07250
N469        N  0.57644572  0.78549745  0.74933051    -0.27130
N470        N  0.59917947  0.80824273  0.75046344    -0.34990
C471        C  0.64771690  0.80419199  0.75098522     0.01210
C472        C  0.65676314  0.77745725  0.74994533     0.07230
C473        C  0.61026374  0.76629949  0.74896714    -0.05870
H474        H  0.67379793  0.81994414  0.75228648     0.07900
H475        H  0.60127859  0.74572308  0.74794113     0.09100
Cu476      Cu  0.56495591  0.84433950  0.75088930     0.44170
Cu477      Cu  0.50043449  0.78188248  0.74868540     0.41990
Cu478      Cu  0.43529195  0.84452481  0.75091141     0.43880
N479        N  0.52432194  0.87849191  0.75054771    -0.34520
N480        N  0.47597775  0.87858409  0.75057423    -0.28770
C481        C  0.45991881  0.90347760  0.75031754    -0.04870
C482        C  0.50026330  0.91978896  0.75011892     0.07340
C483        C  0.54050920  0.90331153  0.75026453     0.01140
H484        H  0.42177015  0.90924054  0.75030944     0.08790
H485        H  0.57869065  0.90891170  0.75021739     0.07870
N486        N  0.40144572  0.80838233  0.75045839    -0.35970
N487        N  0.42440946  0.78563631  0.74933275    -0.28150
C488        C  0.39079800  0.76642996  0.74897123    -0.03390
C489        C  0.34418310  0.77756187  0.74994263     0.05220
C490        C  0.35294120  0.80430569  0.75096988     0.03310
H491        H  0.40001608  0.74586017  0.74795450     0.08420
H492        H  0.32667577  0.82004252  0.75224982     0.07250
N493        N  0.92431145  0.71451929  0.99907685    -0.27130
N494        N  0.90161311  0.69176104  0.00005140    -0.34990
C495        C  0.85306535  0.69578610  0.00057652     0.01210
C496        C  0.84395023  0.72252990  0.49978135     0.07230
C497        C  0.89045907  0.73370425  0.99887743    -0.05870
H498        H  0.82704704  0.67999466  0.00163135     0.07900
H499        H  0.89944813  0.75428571  0.99806593     0.09100
Cu500      Cu  0.93596948  0.65569372  0.00046619     0.44170
Cu501      Cu  0.00034962  0.71813435  0.99840413     0.41990
Cu502      Cu  0.06568904  0.65552586  0.00183485     0.43880
N503        N  0.97665997  0.62155330  0.00051150    -0.34520
N504        N  0.02500000  0.62144485  0.00102860    -0.28770
C505        C  0.04102317  0.59653743  0.00085345    -0.04870
C506        C  0.00065548  0.58024103  0.00022619     0.07340
C507        C  0.96044790  0.59674246  0.00002231     0.01140
H508        H  0.07915815  0.59075397  0.00120298     0.08790
H509        H  0.92226362  0.59116269  0.99957976     0.07870
N510        N  0.09943628  0.69171783  0.00105131    -0.35970
N511        N  0.07640712  0.71443059  0.49930199    -0.28150
C512        C  0.10997172  0.73366527  0.49861012    -0.03310
C513        C  0.15653456  0.72256915  0.50000686     0.05220
C514        C  0.14793224  0.69586146  0.00170888     0.03310
H515        H  0.10086460  0.75422817  0.49699368     0.08420
H516        H  0.17443108  0.68026749  0.50371513     0.07250
N517        N  0.92486162  0.71452025  0.75064584    -0.27130
N518        N  0.90213182  0.69177677  0.74947131    -0.34990
C519        C  0.85359387  0.69582187  0.74895173     0.01210
C520        C  0.84454221  0.72255340  0.75003615     0.07230
C521        C  0.89103882  0.73371490  0.75103841    -0.05870
H522        H  0.82751607  0.68006963  0.74761663     0.07900
H523        H  0.90001754  0.75429028  0.75210015     0.09100
Cu524      Cu  0.93638088  0.65569983  0.74899077     0.44170
Cu525      Cu  0.00087569  0.71811648  0.75130423     0.41990
Cu526      Cu  0.06604443  0.65543579  0.74917142     0.43880
N527        N  0.97692867  0.62153251  0.74935311    -0.34520
N528        N  0.02527246  0.62139281  0.74943835    -0.28770
C529        C  0.04122971  0.59647865  0.74972335    -0.04870
C530        C  0.00081134  0.58021241  0.74980909     0.07340
C531        C  0.96063987  0.59673414  0.74957594     0.01140
H532        H  0.07935625  0.59067055  0.74981935     0.08790
H533        H  0.92243690  0.59117929  0.74954355     0.07870
N534        N  0.09986612  0.69159651  0.74958440    -0.35970
N535        N  0.07689865  0.71434419  0.75067125    -0.28150
C536        C  0.11050585  0.73355346  0.75100542    -0.03390
C537        C  0.15712324  0.72242499  0.75005631     0.05220
C538        C  0.14837010  0.69567831  0.74907075     0.03310
H539        H  0.10128199  0.75412419  0.75198806     0.08420
H540        H  0.17463847  0.67994167  0.74782063     0.07250
N541        N  0.07611621  0.28552603  0.99955305    -0.27130
N542        N  0.09881359  0.30828618  0.99876104    -0.34990
C543        C  0.14737792  0.30423779  0.99861986     0.01210
C544        C  0.15634040  0.27749027  0.99962423     0.07230
C545        C  0.10988032  0.26632481  0.00013964    -0.05870
H546        H  0.17359046  0.31995282  0.99751238     0.07900
H547        H  0.10089891  0.24574267  0.00104553     0.09100
Cu548      Cu  0.06398586  0.34423015  0.99850476     0.44170
Cu549      Cu  0.00026949  0.28190239  0.99953433     0.41990
Cu550      Cu  0.93359724  0.34408545  0.00136688     0.43880
N551        N  0.02272976  0.37817197  0.99950701    -0.34520
N552        N  0.97439035  0.37821020  0.00052522    -0.28770
C553        C  0.95830908  0.40311557  0.00083387    -0.04870
C554        C  0.99861627  0.41946127  0.00003644     0.07340
C555        C  0.03883939  0.40300128  0.99922866     0.01140
H556        H  0.92017282  0.40886688  0.00160337     0.08790
H557        H  0.07698802  0.40862178  0.99843668     0.07870
N558        N  0.90057659  0.30762336  0.00093270    -0.35970
N559        N  0.92431598  0.28508605  0.99985771    -0.28150
C560        C  0.89150153  0.26549299  0.99926230    -0.03390
C561        C  0.84461786  0.27616313  0.00021560     0.05220
C562        C  0.85221843  0.30298094  0.00122332     0.03310
H563        H  0.90157315  0.24508329  0.99777601     0.08420
H564        H  0.82475476  0.31820868  0.00231499     0.07250
N565        N  0.07499894  0.28536219  0.75047929    -0.27130
N566        N  0.09854802  0.30786002  0.74960032    -0.34990
C567        C  0.14691151  0.30316086  0.74925524     0.01210
C568        C  0.15469957  0.27627935  0.75002286     0.07230
C569        C  0.10779545  0.26571384  0.75084812    -0.05870
H570        H  0.17410758  0.31843506  0.74839434     0.07900
H571        H  0.09744354  0.24538081  0.75189163     0.09100
Cu572      Cu  0.06465761  0.34414323  0.74927304     0.44170
Cu573      Cu  0.99938958  0.28237519  0.75085872     0.41990
Cu574      Cu  0.93346026  0.34435043  0.74994554     0.43880
N575        N  0.02324998  0.37813552  0.74961986    -0.34520
N576        N  0.97486443  0.37823439  0.74984962    -0.28770
C577        C  0.95884139  0.40314244  0.75002905    -0.04870
C578        C  0.99917463  0.41945674  0.74992486     0.07340
C579        C  0.03940047  0.40296825  0.74967186     0.01140
H580        H  0.92069512  0.40891503  0.75022232     0.08790
H581        H  0.07757569  0.40857442  0.74951422     0.07870
N582        N  0.90002194  0.30803726  0.75009516    -0.35970
N583        N  0.92377417  0.28552602  0.75045203    -0.28150
C584        C  0.89116150  0.26588352  0.75046438    -0.03390
C585        C  0.84413801  0.27645462  0.75010321     0.05220
C586        C  0.85170112  0.30334745  0.74987437     0.03310
H587        H  0.90179101  0.24555397  0.75075466     0.08420
H588        H  0.82440773  0.31865438  0.74956958     0.07250
O589        O  0.03981176  0.49968415  0.54535206    -0.72790
O590        O  0.04065697  0.49963143  0.95492213    -0.73770
O591        O  0.04090058  0.53895670  0.00014016    -0.62390
O592        O  0.03967015  0.46037469  0.00013289    -0.70800
O593        O  0.95837610  0.46075520  0.99987676    -0.70350
O594        O  0.95960525  0.53933358  0.99987220    -0.61600
O595        O  0.95954855  0.50008951  0.95461571    -0.74110
O596        O  0.95870410  0.50003070  0.54508231    -0.72890
Cu597      Cu  0.04307946  0.49964408  0.00014387     1.04560
Cu598      Cu  0.95623650  0.50007030  0.99984558     1.04330
C599        C  0.99912506  0.49985489  0.55960319     0.93410
C600        C  0.00025945  0.49984578  0.94038402     0.92550
C601        C  0.00039614  0.55150884  0.00004821     0.84700
C602        C  0.99887195  0.44819916  0.00001596     0.90970
O603        O  0.04001816  0.49961293  0.79537444    -0.72790
O604        O  0.04086670  0.49976631  0.70490936    -0.73770
O605        O  0.04103934  0.53895299  0.75018519    -0.62390
O606        O  0.04011285  0.46040168  0.75006521    -0.70800
O607        O  0.95881725  0.46071752  0.74994300    -0.70350
O608        O  0.95974254  0.53930458  0.74975962    -0.61600
O609        O  0.95975809  0.49995754  0.70463771    -0.74110
O610        O  0.95891041  0.50012688  0.79506903    -0.72890
Cu611      Cu  0.04332896  0.49966567  0.75014864     1.04560
Cu612      Cu  0.95648423  0.50003660  0.74984524     1.04330
C613        C  0.99930947  0.49990820  0.80960641     0.93410
C614        C  0.00044630  0.49989440  0.69038722     0.92550
C615        C  0.00052589  0.55148871  0.74994033     0.84700
C616        C  0.99935790  0.44819404  0.74998935     0.90970
C617        C  0.95612111  0.50255592  0.89105946    -0.21150
C618        C  0.00040807  0.49985161  0.90692477    -0.09190
C619        C  0.04424119  0.49719418  0.89043628     0.29670
C620        C  0.04346003  0.49727265  0.85893078    -0.21150
C621        C  0.99916889  0.49995590  0.84306537    -0.09200
C622        C  0.95534177  0.50264194  0.85955351     0.29670
F623        F  0.91160290  0.50555050  0.84539643    -0.19730
H624        H  0.92181147  0.50472531  0.90303853     0.18040
H625        H  0.07777116  0.49510623  0.84695236     0.18040
F626        F  0.08798713  0.49431247  0.90459226    -0.19720
C627        C  0.04355982  0.50152626  0.60888286    -0.21150
C628        C  0.99906260  0.49987749  0.59306432    -0.09190
C629        C  0.95512332  0.49827292  0.60960231     0.29670
C630        C  0.95600800  0.49832103  0.64110605    -0.21150
C631        C  0.00050787  0.49994174  0.65692542    -0.09200
C632        C  0.04444352  0.50158340  0.64038744     0.29670
F633        F  0.08841201  0.50338514  0.65449156    -0.19730
H634        H  0.07797186  0.50285580  0.59686966     0.18040
H635        H  0.92159450  0.49699579  0.65311759     0.18040
F636        F  0.91115038  0.49650010  0.59549865    -0.19720
C637        C  0.29466422  0.73628761  0.75204130    -0.21150
C638        C  0.29600653  0.76371929  0.74996433    -0.09190
C639        C  0.25101696  0.77728649  0.74789682     0.29670
C640        C  0.20663950  0.76370485  0.74794748    -0.21150
C641        C  0.20529770  0.73627214  0.75002610    -0.09200
C642        C  0.25028869  0.72270637  0.75209092     0.29670
F643        F  0.25229268  0.69631257  0.75453671    -0.19730
H644        H  0.32804995  0.72500853  0.75388085     0.18040
H645        H  0.17325276  0.77498378  0.74610978     0.18040
F646        F  0.24901889  0.80368063  0.74544610    -0.19720
C647        C  0.70682582  0.73624437  0.75212541    -0.21150
C648        C  0.70511364  0.76366637  0.74996206    -0.09190
C649        C  0.74991652  0.77728393  0.74781009     0.29670
C650        C  0.79447675  0.76376009  0.74786486    -0.21150
C651        C  0.79618947  0.73633924  0.75002696    -0.09200
C652        C  0.75138814  0.72272009  0.75218123     0.29670
F653        F  0.74975430  0.69633150  0.75473940    -0.19730
H654        H  0.67358855  0.72493482  0.75403704     0.18040
H655        H  0.82771295  0.77506977  0.74595126     0.18040
F656        F  0.75155685  0.80367214  0.74525684    -0.19720
C657        C  0.20630231  0.76352755  0.50481746    -0.21150
C658        C  0.20462773  0.73637992  0.49994138    -0.09190
C659        C  0.24919323  0.72298783  0.99506173     0.29670
C660        C  0.29367405  0.73648165  0.99518495    -0.21150
C661        C  0.29534885  0.76362934  0.50006288    -0.09200
C662        C  0.25078254  0.77702132  0.50494064     0.29670
F663        F  0.24954204  0.80307358  0.51055124    -0.19730
H664        H  0.17312700  0.77453025  0.50900800     0.18040
H665        H  0.32684942  0.72547881  0.99099478     0.18040
F666        F  0.25043114  0.69693560  0.98944993    -0.19720
C667        C  0.70611088  0.73620198  0.99900364    -0.21150
C668        C  0.70442604  0.76367436  0.50009636    -0.09190
C669        C  0.74930800  0.77732639  0.50110086     0.29670
C670        C  0.79386911  0.76379364  0.50099788    -0.21150
C671        C  0.79555377  0.73632097  0.49990463    -0.09200
C672        C  0.75067143  0.72266932  0.99890155     0.29670
F673        F  0.74890226  0.69621932  0.99758293    -0.19730
H674        H  0.67284310  0.72483197  0.99807133     0.18040
H675        H  0.82713714  0.77516368  0.50192910     0.18040
F676        F  0.75107525  0.80377643  0.50242362    -0.19720
C677        C  0.74677600  0.22291930  0.75001847    -0.21150
C678        C  0.70304210  0.23753706  0.74994488    -0.09190
C679        C  0.70655664  0.26505729  0.74992223     0.29670
C680        C  0.75226916  0.27725572  0.74996717    -0.21150
C681        C  0.79600300  0.26263603  0.75003897    -0.09200
C682        C  0.79248357  0.23511555  0.75006220     0.29670
F683        F  0.83271591  0.21956839  0.75009539    -0.19730
H684        H  0.74622915  0.20181037  0.75001822     0.18040
H685        H  0.75282679  0.29836494  0.74996852     0.18040
F686        F  0.66631402  0.28059734  0.74988449    -0.19720
C687        C  0.25259296  0.22281952  0.74763376    -0.21150
C688        C  0.29610500  0.23736988  0.74992699    -0.09190
C689        C  0.29228161  0.26481090  0.75227674     0.29670
C690        C  0.24645240  0.27701032  0.75234450    -0.21150
C691        C  0.20294027  0.26246199  0.75005016    -0.09200
C692        C  0.20675886  0.23502116  0.74770062     0.29670
F693        F  0.16669658  0.21961225  0.74510606    -0.19730
H694        H  0.25348768  0.20177826  0.74553762     0.18040
H695        H  0.24556810  0.29805114  0.75444377     0.18040
F696        F  0.33233381  0.28022654  0.75487354    -0.19720
C697        C  0.75350540  0.27660059  0.99344254    -0.21150
C698        C  0.79648870  0.26247515  0.00001425    -0.09190
C699        C  0.79234780  0.23560201  0.50659038     0.29670
C700        C  0.74653844  0.22345880  0.50656012    -0.21150
C701        C  0.70355725  0.23758332  0.99998447    -0.09200
C702        C  0.70769488  0.26445646  0.99341211     0.29670
F703        F  0.66797262  0.27912841  0.98619626    -0.19730
H704        H  0.75505101  0.29717322  0.98784407     0.18040
H705        H  0.74499274  0.20288598  0.51215958     0.18040
F706        F  0.83206534  0.22092654  0.51380570    -0.19720
C707        C  0.20636193  0.23637916  0.99599878    -0.21150
C708        C  0.20457723  0.26365974  0.99986425    -0.09190
C709        C  0.24917319  0.27711515  0.50390689     0.29670
C710        C  0.29369587  0.26356324  0.50399176    -0.21150
C711        C  0.29548137  0.23628275  0.00012713    -0.09200
C712        C  0.25088661  0.22282713  0.99608343     0.29670
F713        F  0.24953989  0.19661698  0.99164620    -0.19730
H714        H  0.17323877  0.22524897  0.99252473     0.18040
H715        H  0.32681755  0.27469413  0.50746750     0.18040
F716        F  0.25052668  0.30332536  0.50834288    -0.19720
C717        C  0.54275200  0.99334506  0.89106752    -0.21150
C718        C  0.50007299  0.00027854  0.90690159    -0.09190
C719        C  0.45781756  0.00708218  0.89043392     0.29670
C720        C  0.45848632  0.00682780  0.85891919    -0.21150
C721        C  0.50117587  0.99992059  0.84308672    -0.09200
C722        C  0.54341925  0.99309031  0.85955077     0.29670
F723        F  0.58520287  0.98567355  0.84531936    -0.19730
H724        H  0.57570030  0.98782729  0.90309979     0.18040
H725        H  0.42553850  0.01234212  0.84688593     0.18040
F726        F  0.41601363  0.01447455  0.90465774    -0.19720
C727        C  0.54384452  0.99576709  0.64108195    -0.21150
C728        C  0.50004611  0.00024695  0.65693152    -0.09190
C729        C  0.45670133  0.00461109  0.64042965     0.29670
C730        C  0.45744979  0.00441842  0.60891436    -0.21150
C731        C  0.50125151  0.99995508  0.59306306    -0.09200
C732        C  0.54459081  0.99556684  0.60956479     0.29670
F733        F  0.58772609  0.99074619  0.59539495    -0.19730
H734        H  0.57773223  0.99220741  0.65309090     0.18040
H735        H  0.42355949  0.00797649  0.59690880     0.18040
F736        F  0.41355810  0.00941199  0.65459855    -0.19720
loop_ 
_geom_bond_atom_site_label_1 
_geom_bond_atom_site_label_2 
_geom_bond_distance 
_geom_bond_site_symmetry_2 
_ccdc_geom_bond_type 
O1           C11   1.279   1_545  A
O1         Cu377   2.009       .  S
O2           C12   1.278       .  A
O2           Cu9   2.009       .  S
O3          C381   1.277       .  A
O3           Cu9   2.011   1_565  S
O4          C382   1.277       .  A
O4         Cu377   2.008       .  S
O5          C382   1.278   1_556  A
O5          Cu10   2.012   1_545  S
O6          C381   1.277       .  A
O6         Cu378   2.008       .  S
O7           C12   1.278   1_565  A
O7         Cu378   2.009       .  S
O8           C11   1.278       .  A
O8          Cu10   2.009   1_554  S
Cu9         O369   2.009       .  S
Cu9         O372   2.008       .  S
Cu9        Cu378   2.372   1_545  S
Cu10        O374   2.008       .  S
Cu10        O375   2.009       .  S
Cu10       Cu377   2.372   1_566  S
C11         C363   1.485       .  S
C12         C350   1.483       .  S
C13         O371   1.277       .  A
C13         O374   1.277       .  A
C13          C90   1.469       .  S
C14         O372   1.277       .  A
C14         O373   1.278       .  A
C14         C410   1.469       .  S
O15          C25   1.278       .  A
O15         Cu23   2.009   1_565  S
O16          C26   1.279       .  A
O16         Cu23   2.009       .  S
O17          C27   1.278       .  A
O17         Cu23   2.012       .  S
O18          C28   1.277       .  A
O18         Cu23   2.008   1_565  S
O19          C28   1.277       .  A
O19         Cu24   2.010   1_565  S
O20          C27   1.277       .  A
O20         Cu24   2.007       .  S
O21          C26   1.278       .  A
O21         Cu24   2.009       .  S
O22          C25   1.279   1_545  A
O22         Cu24   2.009       .  S
Cu23        Cu24   2.372       .  S
C25         C353   1.483       .  S
C26         C360   1.485       .  S
C27          C66   1.469       .  S
C28         C114   1.468       .  S
N29          N30   1.320       .  A
N29          C33   1.345       .  A
N29         Cu37   2.080       .  S
N30          C31   1.342       .  A
N30         Cu36   2.067       .  S
C31          C32   1.389       .  A
C31          H34   1.078       .  S
C32         C343   1.494       .  S
C32          C33   1.393       .  A
C33          H35   1.082       .  S
Cu36         N39   2.067       .  S
Cu37         N47   2.080       .  S
Cu38         N40   2.072       .  S
Cu38        N414   2.072       .  S
N39         N408   1.321       .  A
N39          C43   1.344       .  A
N40         N407   1.321   1_556  A
N40          C41   1.346       .  A
C41          C42   1.384   1_556  A
C41          H44   1.082       .  S
C42         C382   1.469       .  S
C42         C411   1.383       .  A
C43         C410   1.383       .  A
C43          H45   1.082       .  S
N46          N47   1.321       .  A
N46          C50   1.342       .  A
N46        Cu406   2.072       .  S
N47          C48   1.346       .  A
C48          C49   1.391       .  A
C48          H51   1.080       .  S
C49         C333   1.490       .  S
C49          C50   1.388       .  A
C50         H420   1.081       .  S
H52         C418   1.081       .  S
N53          N54   1.319       .  A
N53          C57   1.344       .  A
N53         Cu61   2.071       .  S
N54          C55   1.342       .  A
N54         Cu60   2.070       .  S
C55          C56   1.390       .  A
C55          H58   1.079       .  S
C56         C310   1.494       .  S
C56          C57   1.392       .  A
C57          H59   1.078       .  S
Cu60         N63   2.070       .  S
Cu61         N71   2.071       .  S
Cu62         N64   2.072       .  S
Cu62         N70   2.072       .  S
N63          N64   1.321       .  A
N63          C67   1.345       .  A
N64          C65   1.345       .  A
C65          C66   1.383       .  A
C65          H68   1.082       .  S
C66          C67   1.383       .  A
C67          H69   1.082       .  S
N70          N71   1.320       .  A
N70          C74   1.342       .  A
N71          C72   1.344       .  A
C72          C73   1.392       .  A
C72          H75   1.079       .  S
C73         C320   1.493       .  S
C73          C74   1.390       .  A
C74          H76   1.080       .  S
N77          N78   1.320       .  A
N77          C81   1.346       .  A
N77         Cu85   2.085       .  S
N78          C79   1.341       .  A
N78         Cu84   2.066       .  S
C79          C80   1.389       .  A
C79          H82   1.078       .  S
C80         C668   1.496       .  S
C80          C81   1.395       .  A
C81          H83   1.081       .  S
Cu84         N87   2.066       .  S
Cu85        N463   2.086       .  S
Cu86         N88   2.069       .  S
Cu86        N462   2.069       .  S
N87         N456   1.320       .  A
N87          C91   1.344       .  A
N88         N455   1.320       .  A
N88          C89   1.345       .  A
C89          C90   1.384       .  A
C89          H92   1.082       .  S
C90         C459   1.383       .  A
C91         C458   1.383       .  A
C91          H93   1.082       .  S
N94         N463   1.321       .  A
N94          C98   1.342       .  A
N94        Cu454   2.069       .  S
N95         N462   1.321   1_554  A
N95          C96   1.346       .  A
N95        Cu453   2.086       .  S
C96         C465   1.392       .  A
C96         H467   1.082       .  S
C97         C661   1.493       .  S
C97          C98   1.388       .  A
C97         C464   1.392       .  A
C98         H468   1.079       .  S
H99         C464   1.082       .  S
H100        C466   1.079       .  S
N101        N102   1.320       .  A
N101        C105   1.346       .  A
N101       Cu109   2.085       .  S
N102        C103   1.341       .  A
N102       Cu108   2.066       .  S
C103        C104   1.389       .  A
C103        H106   1.078       .  S
C104        C280   1.495       .  S
C104        C105   1.394       .  A
C105        H107   1.082       .  S
Cu108       N111   2.066       .  S
Cu109       N119   2.085       .  S
Cu110       N112   2.068       .  S
Cu110       N118   2.068       .  S
N111        N112   1.320       .  A
N111        C115   1.345       .  A
N112        C113   1.345       .  A
C113        C114   1.383       .  A
C113        H116   1.082       .  S
C114        C115   1.383       .  A
C115        H117   1.082       .  S
N118        N119   1.321       .  A
N118        C122   1.342       .  A
N119        C120   1.346       .  A
C120        C121   1.394       .  A
C120        H123   1.081       .  S
C121        C270   1.495       .  S
C121        C122   1.389       .  A
C122        H124   1.078       .  S
N125        N126   1.320       .  A
N125        C129   1.346       .  A
N125       Cu133   2.085   1_655  S
N126        C127   1.341       .  A
N126       Cu132   2.067       .  S
C127        C496   1.389       .  A
C127        H130   1.078       .  S
C128        C303   1.496       .  S
C128        C495   1.389   1_556  A
C128        C497   1.395       .  A
C129        C496   1.395       .  A
C129        H131   1.081       .  S
Cu132       N135   2.066       .  S
Cu133       N511   2.086       .  S
Cu134       N136   2.069       .  S
Cu134       N142   2.069       .  S
N135        N136   1.320   1_655  A
N135        C139   1.344       .  A
N136        C137   1.345       .  A
C137        C138   1.384       .  A
C137        H140   1.082       .  S
C138        C233   1.469       .  S
C138        C139   1.383   1_455  A
C139        H141   1.082       .  S
N142        N511   1.321       .  A
N142        C146   1.342       .  A
N143        N510   1.321   1_556  A
N143        C144   1.346       .  A
N143       Cu501   2.086       .  S
C144        C145   1.392   1_556  A
C144        H147   1.082       .  S
C145        C290   1.493   1_554  S
C145        C514   1.388       .  A
C146        C513   1.388       .  A
C146        H516   1.079       .  S
H148        C514   1.079       .  S
N149        N150   1.320       .  A
N149        C153   1.346       .  A
N149       Cu157   2.085   1_655  S
N150        C151   1.341       .  A
N150       Cu156   2.066       .  S
C151        C152   1.389       .  A
C151        H154   1.078       .  S
C152        C283   1.495       .  S
C152        C153   1.394       .  A
C153        H155   1.082       .  S
Cu156       N159   2.066       .  S
Cu157       N167   2.085       .  S
Cu158       N160   2.068       .  S
Cu158       N166   2.068       .  S
N159        N160   1.320   1_655  A
N159        C163   1.344       .  A
N160        C161   1.345       .  A
C161        C162   1.384       .  A
C161        H164   1.082       .  S
C162        C247   1.468       .  S
C162        C163   1.383   1_455  A
C163        H165   1.082       .  S
N166        N167   1.321       .  A
N166        C170   1.342       .  A
N167        C168   1.346       .  A
C168        C169   1.394       .  A
C168        H171   1.081       .  S
C169        C273   1.495       .  S
C169        C170   1.389       .  A
C170        H172   1.078       .  S
N173        N174   1.320       .  A
N173        C177   1.345       .  A
N173       Cu181   2.080       .  S
N174        C175   1.342       .  A
N174       Cu180   2.067       .  S
C175        C176   1.389       .  A
C175        H178   1.078       .  S
C176        C340   1.493       .  S
C176        C177   1.393       .  A
C177        H179   1.082       .  S
Cu180       N183   2.067       .  S
Cu181       N191   2.080   1_455  S
Cu182       N184   2.072       .  S
Cu182       N190   2.073       .  S
N183        N184   1.321   1_455  A
N183        C187   1.344       .  A
N184        C185   1.346       .  A
C185        C186   1.384       .  A
C185        H188   1.082       .  S
C186        C234   1.469       .  S
C186        C187   1.382   1_655  A
C187        H189   1.082       .  S
N190        N191   1.321       .  A
N190        C194   1.342       .  A
N191        C192   1.346       .  A
C192        C193   1.391       .  A
C192        H195   1.080       .  S
C193        C330   1.491       .  S
C193        C194   1.388       .  A
C194        H196   1.081       .  S
N197        N198   1.320       .  A
N197        C201   1.344       .  A
N197       Cu205   2.071   1_455  S
N198        C199   1.342       .  A
N198       Cu204   2.071       .  S
C199        C200   1.390       .  A
C199        H202   1.080       .  S
C200        C323   1.493       .  S
C200        C201   1.392       .  A
C201        H203   1.079       .  S
Cu204       N207   2.071       .  S
Cu205       N215   2.071       .  S
Cu206       N208   2.071       .  S
Cu206       N214   2.071       .  S
N207        N208   1.321   1_455  A
N207        C211   1.345       .  A
N208        C209   1.345       .  A
C209        C210   1.383       .  A
C209        H212   1.082       .  S
C210        C248   1.469       .  S
C210        C211   1.383   1_655  A
C211        H213   1.082       .  S
N214        N215   1.320       .  A
N214        C218   1.342       .  A
N215        C216   1.344       .  A
C216        C217   1.392       .  A
C216        H219   1.078       .  S
C217        C313   1.494       .  S
C217        C218   1.391       .  A
C218        H220   1.079       .  S
O221        C231   1.278   1_455  A
O221       Cu597   2.008       .  S
O222        C232   1.278       .  A
O222       Cu229   2.007       .  S
O223        C233   1.277       .  A
O223       Cu229   2.010       .  S
O224        C234   1.278   1_455  A
O224       Cu229   2.010       .  S
O225        C234   1.277       .  A
O225       Cu230   2.010       .  S
O226        C233   1.277   1_655  A
O226       Cu230   2.009       .  S
O227        C232   1.279   1_655  A
O227       Cu230   2.009       .  S
O228        C231   1.278       .  A
O228       Cu598   2.008   1_554  S
Cu229       O589   2.008       .  S
Cu229      Cu230   2.372   1_455  S
Cu230       O596   2.008       .  S
C231        C260   1.484       .  S
C232        C250   1.484       .  S
O235        C245   1.279   1_455  A
O235       Cu243   2.008       .  S
O236        C246   1.278       .  A
O236       Cu243   2.008       .  S
O237        C247   1.277       .  A
O237       Cu243   2.009       .  S
O238        C248   1.277   1_455  A
O238       Cu243   2.009       .  S
O239        C248   1.277       .  A
O239       Cu244   2.011       .  S
O240        C247   1.277   1_655  A
O240       Cu244   2.009       .  S
O241        C246   1.278   1_655  A
O241       Cu244   2.007       .  S
O242        C245   1.278       .  A
O242       Cu244   2.007       .  S
Cu243      Cu244   2.372   1_455  S
C245        C253   1.484       .  S
C246        C263   1.484       .  S
C249        C250   1.406   1_655  A
C249        C254   1.398       .  A
C249        H256   1.083       .  S
C250        C251   1.409       .  A
C251        C252   1.398       .  A
C251        F258   1.357       .  S
C252        C253   1.406   1_455  A
C252        H257   1.083       .  S
C253        C254   1.409       .  A
C254        F255   1.357       .  S
C259        C260   1.406   1_455  A
C259        C264   1.398       .  A
C259        H266   1.083       .  S
C260        C261   1.409       .  A
C261        C262   1.398       .  A
C261        F268   1.357       .  S
C262        C263   1.406   1_655  A
C262        H267   1.083       .  S
C263        C264   1.409       .  A
C264        F265   1.357       .  S
C269        C270   1.406       .  A
C269        C274   1.398       .  A
C269        H276   1.081       .  S
C270        C271   1.412       .  A
C271        C272   1.398       .  A
C271        F278   1.354       .  S
C272        C273   1.406       .  A
C272        H277   1.081       .  S
C273        C274   1.412       .  A
C274        F275   1.354       .  S
C279        C280   1.406       .  A
C279        C284   1.398       .  A
C279        H286   1.081       .  S
C280        C281   1.412       .  A
C281        C282   1.398       .  A
C281        F288   1.354       .  S
C282        C283   1.405       .  A
C282        H287   1.081       .  S
C283        C284   1.412       .  A
C284        F285   1.354       .  S
C289        C290   1.405   1_554  A
C289        C294   1.398       .  A
C289        H296   1.081       .  S
C290        C659   1.412       .  A
C291        C292   1.398       .  A
C291        C658   1.412       .  A
C291        F298   1.355       .  S
C292        C661   1.405       .  A
C292        H297   1.081       .  S
C293        C465   1.493       .  S
C293        C294   1.412       .  A
C293        C660   1.405   1_554  A
C294        F295   1.355       .  S
C299        C304   1.398       .  A
C299        C668   1.406       .  A
C299        H306   1.081       .  S
C300        C448   1.496       .  S
C300        C301   1.413       .  A
C300        C667   1.406   1_554  A
C301        C302   1.398       .  A
C301        F308   1.354       .  S
C302        C303   1.406   1_554  A
C302        H307   1.081       .  S
C303        C672   1.413       .  A
C304        C671   1.413       .  A
C304        F305   1.354       .  S
C309        C310   1.407       .  A
C309        C314   1.397       .  A
C309        H316   1.079       .  S
C310        C311   1.410       .  A
C311        C312   1.397       .  A
C311        F318   1.354       .  S
C312        C313   1.407       .  A
C312        H317   1.079       .  S
C313        C314   1.410       .  A
C314        F315   1.354       .  S
C319        C320   1.407       .  A
C319        C324   1.397       .  A
C319        H326   1.080       .  S
C320        C321   1.410       .  A
C321        C322   1.397       .  A
C321        F328   1.355       .  S
C322        C323   1.407       .  A
C322        H327   1.080       .  S
C323        C324   1.410       .  A
C324        F325   1.355       .  S
C329        C330   1.407       .  A
C329        C334   1.398       .  A
C329        H336   1.081       .  S
C330        C699   1.409       .  A
C331        C332   1.398       .  A
C331        C698   1.409       .  A
C331        F338   1.355       .  S
C332        C701   1.407   1_554  A
C332        H337   1.081       .  S
C333        C334   1.409       .  A
C333        C700   1.407       .  A
C334        F335   1.355       .  S
C339        C340   1.406       .  A
C339        C344   1.398       .  A
C339        H346   1.081       .  S
C340        C709   1.412       .  A
C341        C342   1.398       .  A
C341        C708   1.412   1_554  A
C341        F348   1.355       .  S
C342        C711   1.406       .  A
C342        H347   1.081       .  S
C343        C344   1.412       .  A
C343        C710   1.406       .  A
C344        F345   1.355       .  S
C349        C350   1.406   1_565  A
C349        C354   1.398       .  A
C349        H356   1.083       .  S
C350        C351   1.409       .  A
C351        C352   1.398       .  A
C351        F358   1.357       .  S
C352        C353   1.405   1_545  A
C352        H357   1.083       .  S
C353        C354   1.409       .  A
C354        F355   1.357       .  S
C359        C360   1.406   1_565  A
C359        C364   1.398       .  A
C359        H366   1.083       .  S
C360        C361   1.409       .  A
C361        C362   1.398       .  A
C361        F368   1.357       .  S
C362        C363   1.406   1_545  A
C362        H367   1.083       .  S
C363        C364   1.409       .  A
C364        F365   1.357       .  S
O369        C379   1.279   1_545  A
O370        C380   1.278       .  A
O370       Cu377   2.009   1_556  S
O371       Cu377   2.011   1_566  S
O373       Cu378   2.012   1_545  S
O375        C380   1.278   1_565  A
O376        C379   1.278       .  A
O376       Cu378   2.009       .  S
C379        C731   1.485       .  S
C380        C718   1.483       .  S
C381        C458   1.469       .  S
O383        C393   1.278       .  A
O383       Cu391   2.009   1_565  S
O384        C394   1.279       .  A
O384       Cu391   2.009       .  S
O385        C395   1.278       .  A
O385       Cu391   2.012       .  S
O386        C396   1.277       .  A
O386       Cu391   2.008   1_565  S
O387        C396   1.277       .  A
O387       Cu392   2.010   1_565  S
O388        C395   1.277       .  A
O388       Cu392   2.007       .  S
O389        C394   1.278       .  A
O389       Cu392   2.009       .  S
O390        C393   1.279   1_545  A
O390       Cu392   2.009       .  S
Cu391      Cu392   2.372       .  S
C393        C721   1.483       .  S
C394        C728   1.485       .  S
C395        C434   1.469       .  S
C396        C482   1.468       .  S
N397        N398   1.320       .  A
N397        C401   1.345   1_554  A
N397       Cu405   2.080       .  S
N398        C399   1.342       .  A
N398       Cu404   2.067       .  S
C399        C400   1.389       .  A
C399        H402   1.078       .  S
C400        C711   1.494       .  S
C400        C401   1.393   1_554  A
C401        H403   1.082       .  S
Cu404       N407   2.067       .  S
Cu405       N415   2.080       .  S
Cu406       N408   2.072       .  S
N407        C411   1.344       .  A
N408        C409   1.346       .  A
C409        C410   1.384       .  A
C409        H412   1.082       .  S
C411        H413   1.082       .  S
N414        N415   1.321   1_556  A
N414        C418   1.342       .  A
N415        C416   1.346       .  A
C416        C417   1.391   1_554  A
C416        H419   1.080       .  S
C417        C701   1.490       .  S
C417        C418   1.388       .  A
N421        N422   1.319       .  A
N421        C425   1.344       .  A
N421       Cu429   2.071       .  S
N422        C423   1.342       .  A
N422       Cu428   2.070       .  S
C423        C424   1.390       .  A
C423        H426   1.079       .  S
C424        C678   1.494       .  S
C424        C425   1.392       .  A
C425        H427   1.078       .  S
Cu428       N431   2.070       .  S
Cu429       N439   2.071       .  S
Cu430       N432   2.072       .  S
Cu430       N438   2.072       .  S
N431        N432   1.321       .  A
N431        C435   1.345       .  A
N432        C433   1.345       .  A
C433        C434   1.383       .  A
C433        H436   1.082       .  S
C434        C435   1.383       .  A
C435        H437   1.082       .  S
N438        N439   1.320       .  A
N438        C442   1.342       .  A
N439        C440   1.344       .  A
C440        C441   1.392       .  A
C440        H443   1.079       .  S
C441        C688   1.493       .  S
C441        C442   1.390       .  A
C442        H444   1.080       .  S
N445        N446   1.320   1_554  A
N445        C449   1.346       .  A
N445       Cu453   2.085       .  S
N446        C447   1.341       .  A
N446       Cu452   2.066       .  S
C447        C448   1.389   1_556  A
C447        H450   1.078       .  S
C448        C449   1.395       .  A
C449        H451   1.081       .  S
Cu452       N455   2.066       .  S
Cu454       N456   2.069       .  S
N455        C459   1.344       .  A
N456        C457   1.345       .  A
C457        C458   1.384       .  A
C457        H460   1.082       .  S
C459        H461   1.082   1_556  S
N462        C466   1.342       .  A
N463        C464   1.346       .  A
C465        C466   1.388   1_554  A
N469        N470   1.320       .  A
N469        C473   1.346       .  A
N469       Cu477   2.085       .  S
N470        C471   1.341       .  A
N470       Cu476   2.066       .  S
C471        C472   1.389       .  A
C471        H474   1.078       .  S
C472        C648   1.495       .  S
C472        C473   1.394       .  A
C473        H475   1.082       .  S
Cu476       N479   2.066       .  S
Cu477       N487   2.085       .  S
Cu478       N480   2.068       .  S
Cu478       N486   2.068       .  S
N479        N480   1.320       .  A
N479        C483   1.345       .  A
N480        C481   1.345       .  A
C481        C482   1.383       .  A
C481        H484   1.082       .  S
C482        C483   1.383       .  A
C483        H485   1.082       .  S
N486        N487   1.321       .  A
N486        C490   1.342       .  A
N487        C488   1.346       .  A
C488        C489   1.394       .  A
C488        H491   1.081       .  S
C489        C638   1.495       .  S
C489        C490   1.389       .  A
C490        H492   1.078       .  S
N493        N494   1.320   1_556  A
N493        C497   1.346       .  A
N493       Cu501   2.085   1_655  S
N494        C495   1.341       .  A
N494       Cu500   2.067       .  S
C495        H498   1.078       .  S
C496        C671   1.496       .  S
C497        H499   1.081       .  S
Cu500       N503   2.066       .  S
Cu502       N504   2.069       .  S
Cu502       N510   2.069       .  S
N503        N504   1.320   1_655  A
N503        C507   1.344       .  A
N504        C505   1.345       .  A
C505        C506   1.384       .  A
C505        H508   1.082       .  S
C506        C601   1.469       .  S
C506        C507   1.383   1_455  A
C507        H509   1.082   1_554  S
N510        C514   1.342       .  A
N511        C512   1.346       .  A
C512        C513   1.392       .  A
C512        H515   1.082       .  S
C513        C658   1.493       .  S
N517        N518   1.320       .  A
N517        C521   1.346       .  A
N517       Cu525   2.085   1_655  S
N518        C519   1.341       .  A
N518       Cu524   2.066       .  S
C519        C520   1.389       .  A
C519        H522   1.078       .  S
C520        C651   1.495       .  S
C520        C521   1.394       .  A
C521        H523   1.082       .  S
Cu524       N527   2.066       .  S
Cu525       N535   2.085       .  S
Cu526       N528   2.068       .  S
Cu526       N534   2.068       .  S
N527        N528   1.320   1_655  A
N527        C531   1.344       .  A
N528        C529   1.345       .  A
C529        C530   1.384       .  A
C529        H532   1.082       .  S
C530        C615   1.468       .  S
C530        C531   1.383   1_455  A
C531        H533   1.082       .  S
N534        N535   1.321       .  A
N534        C538   1.342       .  A
N535        C536   1.346       .  A
C536        C537   1.394       .  A
C536        H539   1.081       .  S
C537        C641   1.495       .  S
C537        C538   1.389       .  A
C538        H540   1.078       .  S
N541        N542   1.320       .  A
N541        C545   1.345   1_556  A
N541       Cu549   2.080       .  S
N542        C543   1.342       .  A
N542       Cu548   2.067       .  S
C543        C544   1.389       .  A
C543        H546   1.078       .  S
C544        C708   1.493       .  S
C544        C545   1.393   1_556  A
C545        H547   1.082       .  S
Cu548       N551   2.067       .  S
Cu549       N559   2.080   1_455  S
Cu550       N552   2.072       .  S
Cu550       N558   2.073       .  S
N551        N552   1.321   1_456  A
N551        C555   1.344       .  A
N552        C553   1.346       .  A
C553        C554   1.384       .  A
C553        H556   1.082       .  S
C554        C602   1.469       .  S
C554        C555   1.382   1_654  A
C555        H557   1.082       .  S
N558        N559   1.321   1_554  A
N558        C562   1.342       .  A
N559        C560   1.346       .  A
C560        C561   1.391   1_556  A
C560        H563   1.080       .  S
C561        C698   1.491       .  S
C561        C562   1.388       .  A
C562        H564   1.081       .  S
N565        N566   1.320       .  A
N565        C569   1.344       .  A
N565       Cu573   2.071   1_455  S
N566        C567   1.342       .  A
N566       Cu572   2.071       .  S
C567        C568   1.390       .  A
C567        H570   1.080       .  S
C568        C691   1.493       .  S
C568        C569   1.392       .  A
C569        H571   1.079       .  S
Cu572       N575   2.071       .  S
Cu573       N583   2.071       .  S
Cu574       N576   2.071       .  S
Cu574       N582   2.071       .  S
N575        N576   1.321   1_455  A
N575        C579   1.345       .  A
N576        C577   1.345       .  A
C577        C578   1.383       .  A
C577        H580   1.082       .  S
C578        C616   1.469       .  S
C578        C579   1.383   1_655  A
C579        H581   1.082       .  S
N582        N583   1.320       .  A
N582        C586   1.342       .  A
N583        C584   1.344       .  A
C584        C585   1.392       .  A
C584        H587   1.078       .  S
C585        C681   1.494       .  S
C585        C586   1.391       .  A
C586        H588   1.079       .  S
O589        C599   1.278   1_455  A
O590        C600   1.278       .  A
O590       Cu597   2.007   1_556  S
O591        C601   1.277       .  A
O591       Cu597   2.010       .  S
O592        C602   1.278   1_455  A
O592       Cu597   2.010       .  S
O593        C602   1.277   1_556  A
O593       Cu598   2.010       .  S
O594        C601   1.277   1_656  A
O594       Cu598   2.009       .  S
O595        C600   1.279   1_655  A
O595       Cu598   2.009       .  S
O596        C599   1.278       .  A
Cu597      Cu598   2.372   1_454  S
C599        C628   1.484       .  S
C600        C618   1.484       .  S
O603        C613   1.279   1_455  A
O603       Cu611   2.008       .  S
O604        C614   1.278       .  A
O604       Cu611   2.008       .  S
O605        C615   1.277       .  A
O605       Cu611   2.009       .  S
O606        C616   1.277   1_455  A
O606       Cu611   2.009       .  S
O607        C616   1.277       .  A
O607       Cu612   2.011       .  S
O608        C615   1.277   1_655  A
O608       Cu612   2.009       .  S
O609        C614   1.278   1_655  A
O609       Cu612   2.007       .  S
O610        C613   1.278       .  A
O610       Cu612   2.007       .  S
Cu611      Cu612   2.372   1_455  S
C613        C621   1.484       .  S
C614        C631   1.484       .  S
C617        C618   1.406   1_655  A
C617        C622   1.398       .  A
C617        H624   1.083       .  S
C618        C619   1.409       .  A
C619        C620   1.398       .  A
C619        F626   1.357       .  S
C620        C621   1.406   1_455  A
C620        H625   1.083       .  S
C621        C622   1.409       .  A
C622        F623   1.357       .  S
C627        C628   1.406   1_455  A
C627        C632   1.398       .  A
C627        H634   1.083       .  S
C628        C629   1.409       .  A
C629        C630   1.398       .  A
C629        F636   1.357       .  S
C630        C631   1.406   1_655  A
C630        H635   1.083       .  S
C631        C632   1.409       .  A
C632        F633   1.357       .  S
C637        C638   1.406       .  A
C637        C642   1.398       .  A
C637        H644   1.081       .  S
C638        C639   1.412       .  A
C639        C640   1.398       .  A
C639        F646   1.354       .  S
C640        C641   1.406       .  A
C640        H645   1.081       .  S
C641        C642   1.412       .  A
C642        F643   1.354       .  S
C647        C648   1.406       .  A
C647        C652   1.398       .  A
C647        H654   1.081       .  S
C648        C649   1.412       .  A
C649        C650   1.398       .  A
C649        F656   1.354       .  S
C650        C651   1.405       .  A
C650        H655   1.081       .  S
C651        C652   1.412       .  A
C652        F653   1.354       .  S
C657        C658   1.405       .  A
C657        C662   1.398       .  A
C657        H664   1.081       .  S
C659        C660   1.398       .  A
C659        F666   1.355       .  S
C660        H665   1.081       .  S
C661        C662   1.412       .  A
C662        F663   1.355       .  S
C667        C672   1.398       .  A
C667        H674   1.081       .  S
C668        C669   1.413       .  A
C669        C670   1.398       .  A
C669        F676   1.354       .  S
C670        C671   1.406       .  A
C670        H675   1.081       .  S
C672        F673   1.354       .  S
C677        C678   1.407       .  A
C677        C682   1.397       .  A
C677        H684   1.079       .  S
C678        C679   1.410       .  A
C679        C680   1.397       .  A
C679        F686   1.354       .  S
C680        C681   1.407       .  A
C680        H685   1.079       .  S
C681        C682   1.410       .  A
C682        F683   1.354       .  S
C687        C688   1.407       .  A
C687        C692   1.397       .  A
C687        H694   1.080       .  S
C688        C689   1.410       .  A
C689        C690   1.397       .  A
C689        F696   1.355       .  S
C690        C691   1.407       .  A
C690        H695   1.080       .  S
C691        C692   1.410       .  A
C692        F693   1.355       .  S
C697        C698   1.407   1_556  A
C697        C702   1.398       .  A
C697        H704   1.081       .  S
C699        C700   1.398       .  A
C699        F706   1.355       .  S
C700        H705   1.081       .  S
C701        C702   1.409       .  A
C702        F703   1.355       .  S
C707        C708   1.406       .  A
C707        C712   1.398       .  A
C707        H714   1.081       .  S
C709        C710   1.398       .  A
C709        F716   1.355       .  S
C710        H715   1.081       .  S
C711        C712   1.412   1_554  A
C712        F713   1.355       .  S
C717        C718   1.406   1_565  A
C717        C722   1.398       .  A
C717        H724   1.083       .  S
C718        C719   1.409       .  A
C719        C720   1.398       .  A
C719        F726   1.357       .  S
C720        C721   1.405   1_545  A
C720        H725   1.083       .  S
C721        C722   1.409       .  A
C722        F723   1.357       .  S
C727        C728   1.406   1_565  A
C727        C732   1.398       .  A
C727        H734   1.083       .  S
C728        C729   1.409       .  A
C729        C730   1.398       .  A
C729        F736   1.357       .  S
C730        C731   1.406   1_545  A
C730        H735   1.083       .  S
C731        C732   1.409       .  A
C732        F733   1.357       .  S
