geometry optimzed in LAMMPS
_audit_creation_date              2020-12-01 
_audit_creation_method            'lammps2cif' 
_symmetry_space_group_name_H-M    'P1' 
_symmetry_Int_Tables_number       1 
_symmetry_cell_setting            triclinic 
loop_ 
_symmetry_equiv_pos_as_xyz 
  x,y,z 
_cell_length_a                    43.18045451 
_cell_length_b                    42.60382195354336 
_cell_length_c                    36.78197951061238 
_cell_angle_alpha                 90.1146021682775 
_cell_angle_beta                  89.87621108964255 
_cell_angle_gamma                 134.42283576258615 
loop_ 
_atom_site_label 
_atom_site_type_symbol 
_atom_site_fract_x 
_atom_site_fract_y 
_atom_site_fract_z 
_atom_site_charge 
O1          O  0.52496710  0.55058783  0.20836726    -0.73300
O2          O  0.53993357  0.49354026  0.28376303    -0.74300
O3          O  0.54209427  0.49749889  0.20648134    -0.62900
O4          O  0.52316073  0.54700529  0.28657138    -0.71300
O5          O  0.45228558  0.48791091  0.28520615    -0.70900
O6          O  0.47108198  0.43889904  0.20394601    -0.62100
O7          O  0.46910572  0.43432532  0.28239329    -0.74700
O8          O  0.45396878  0.49176404  0.20815330    -0.73400
Cu9        Cu  0.53498073  0.52423056  0.24638079     1.04600
Cu10       Cu  0.45918128  0.46105350  0.24489258     1.04300
C11         C  0.48712054  0.52987226  0.19602816     0.92900
C12         C  0.50666730  0.45519456  0.29550897     0.92000
C13         C  0.50937338  0.46097072  0.19184175     0.84200
C14         C  0.48502476  0.52528338  0.29884723     0.90400
C15         C  0.81379198  0.45379339  0.02793360     0.79800
N16         N  0.82689032  0.45719357  0.49493942    -0.78500
C17         C  0.80540549  0.44673244  0.46309193     0.82300
N18         N  0.76200834  0.42193125  0.46386971    -0.78400
C19         C  0.74046623  0.40814506  0.49609440     0.82400
N20         N  0.77012714  0.42705713  0.02877213    -0.80100
C21         C  0.58576716  0.40963720  0.02416677     0.79800
N22         N  0.57651275  0.41704712  0.99194731    -0.78500
C23         C  0.57886336  0.40432134  0.46614645     0.82300
N24         N  0.60040706  0.39182864  0.46770026    -0.78400
C25         C  0.60963862  0.38501119  0.50026265     0.82400
N26         N  0.60477231  0.39438774  0.02424717    -0.80100
C27         C  0.62124379  0.30485304  0.50104782     0.02700
C28         C  0.66627404  0.33340626  0.49824689    -0.13400
C29         C  0.69319012  0.37898441  0.49695668     0.00200
C30         C  0.67480336  0.39613949  0.49817161    -0.11900
C31         C  0.62960272  0.36771615  0.50113801     0.02700
C32         C  0.60299395  0.32207932  0.50269485    -0.11400
H33         H  0.68044048  0.32016640  0.49748989     0.08300
H34         H  0.69553229  0.43136089  0.49696976     0.05900
H35         H  0.56810910  0.29998732  0.50467745     0.05700
C36         C  0.55633733  0.18937290  0.47380770     0.79800
N37         N  0.54280105  0.16935915  0.50672274    -0.78500
C38         C  0.56811692  0.19890907  0.03998397     0.82300
N39         N  0.59350856  0.24300831  0.03809202    -0.78400
C40         C  0.59355036  0.25715277  0.50293178     0.82400
N41         N  0.58214064  0.23355261  0.47194354    -0.80100
O42         O  0.50547965  0.03201848  0.29251372    -0.73300
O43         O  0.48570528  0.95213000  0.21571200    -0.74300
O44         O  0.48309851  0.95133324  0.29310932    -0.62900
O45         O  0.50865943  0.03351152  0.21517162    -0.71300
O46         O  0.57834700  0.07028830  0.21714946    -0.70900
O47         O  0.55320643  0.98953389  0.29557681    -0.62100
O48         O  0.55566920  0.98957203  0.21693492    -0.74700
O49         O  0.57558612  0.07005087  0.29342164    -0.73400
Cu50       Cu  0.49327046  0.99082797  0.25401223     1.04600
Cu51       Cu  0.56803380  0.03085484  0.25582678     1.04300
C52         C  0.54372397  0.06401970  0.30467946     0.92900
C53         C  0.51768487  0.95881821  0.20366058     0.92000
C54         C  0.51450727  0.95844404  0.30738491     0.84200
C55         C  0.54773612  0.06547902  0.20443608     0.90400
O56         O  0.95436944  0.48503409  0.28635562    -0.73300
O57         O  0.02928028  0.49547326  0.21131914    -0.74300
O58         O  0.02832637  0.49694675  0.28862931    -0.62900
O59         O  0.95621003  0.48442003  0.20872729    -0.71300
O60         O  0.00012362  0.55678749  0.20820639    -0.70900
O61         O  0.07232975  0.56929547  0.28698439    -0.62100
O62         O  0.07284559  0.56778255  0.21067986    -0.74700
O63         O  0.99896448  0.55754286  0.28668496    -0.73400
Cu64       Cu  0.99037059  0.48790703  0.24881880     1.04600
Cu65       Cu  0.03733333  0.56528311  0.24811733     1.04300
C66         C  0.96543790  0.51965019  0.29906074     0.92900
C67         C  0.06320506  0.53340062  0.19943906     0.92000
C68         C  0.06243175  0.53535290  0.29974333     0.84200
C69         C  0.96752741  0.51887639  0.19524463     0.90400
C70         C  0.41229308  0.58512168  0.46280831     0.79800
N71         N  0.41417258  0.57363342  0.00397808    -0.78500
C72         C  0.40733261  0.58421048  0.03580643     0.82300
N73         N  0.38687882  0.59800440  0.03556406    -0.78400
C74         C  0.37335023  0.60112596  0.00363330     0.82400
N75         N  0.38793993  0.59450893  0.46451177    -0.80100
C76         C  0.36300312  0.67846510  0.50320777     0.02700
C77         C  0.38281085  0.66288328  0.50157478    -0.13400
C78         C  0.35273276  0.61768697  0.00313092     0.00200
C79         C  0.30763368  0.58839706  0.99914788    -0.10200
C80         C  0.28805322  0.60422200  0.99768238     0.02700
C81         C  0.31772151  0.64861775  0.50238741    -0.11400
H82         H  0.41787903  0.68601812  0.50210396     0.08300
H83         H  0.28776400  0.55334108  0.99777512     0.05900
H84         H  0.30242379  0.66066596  0.50351542     0.05700
C85         C  0.17990656  0.53512648  0.46559412     0.79800
N86         N  0.15765971  0.52091494  0.49732158    -0.78500
C87         C  0.17531770  0.53073588  0.03077203     0.82300
N88         N  0.21911423  0.55873038  0.02992456    -0.78400
C89         C  0.24056711  0.57332239  0.99768746     0.82400
N90         N  0.22360886  0.56164520  0.46624186    -0.80100
C91         C  0.42755609  0.79236520  0.47212623     0.79800
N92         N  0.40348549  0.74856100  0.47210114    -0.78500
C93         C  0.38944215  0.72594408  0.50386656     0.82300
N94         N  0.40193728  0.74868141  0.03734123    -0.78400
C95         C  0.42754314  0.79288074  0.03851614     0.82400
N96         N  0.43736013  0.81337212  0.50430356    -0.80100
C97         C  0.15658263  0.52580756  0.43160653    -0.05600
C98         C  0.11428319  0.48435315  0.42662451    -0.05600
C99         C  0.08834043  0.47713554  0.39836459    -0.23700
C100        C  0.10379494  0.51167168  0.37521116     0.18500
C101        C  0.14665690  0.55335165  0.37955184     0.15700
C102        C  0.17314028  0.55990971  0.40724957    -0.18800
C103        C  0.16155949  0.58825257  0.35720902    -0.20600
C104        C  0.13402747  0.58223552  0.33144822    -0.13100
C105        C  0.09126078  0.54101828  0.32702663     0.03500
C106        C  0.07661038  0.50561839  0.34867229    -0.25300
H107        H  0.10084498  0.45781547  0.44537618     0.08600
H108        H  0.05559433  0.44500968  0.39553315     0.12200
H109        H  0.20539689  0.59225191  0.41145837     0.12100
H110        H  0.19422720  0.62044674  0.36014398     0.11900
H111        H  0.14632329  0.60995490  0.31485349     0.12400
H112        H  0.04370151  0.47372021  0.34561101     0.14400
C113        C  0.15282066  0.52085550  0.06538814    -0.05600
C114        C  0.11155109  0.47894513  0.07208541    -0.05600
C115        C  0.08713923  0.47184573  0.10195584    -0.23700
C116        C  0.10300145  0.50703825  0.12462042     0.18500
C117        C  0.14497673  0.54907035  0.11839156     0.15700
C118        C  0.17001689  0.55538907  0.08944054    -0.18800
C119        C  0.16032761  0.58471329  0.13990904    -0.20600
C120        C  0.13376748  0.57926347  0.16644732    -0.13100
C121        C  0.09167254  0.53789437  0.17254757     0.03500
C122        C  0.07689247  0.50153085  0.15216308    -0.25300
H123        H  0.09779358  0.45203611  0.05362649     0.08600
H124        H  0.05508195  0.43939224  0.10627499     0.12200
H125        H  0.20154406  0.58799609  0.08394743     0.12100
H126        H  0.19238556  0.61713200  0.13544523     0.11900
H127        H  0.14612700  0.60766686  0.18205308     0.12400
H128        H  0.04447340  0.46946976  0.15657644     0.14400
C129        C  0.51087090  0.93248204  0.17261888    -0.05600
C130        C  0.53802445  0.95392368  0.14208437    -0.05600
C131        C  0.52810212  0.93057973  0.11011129    -0.23700
C132        C  0.49131930  0.88516209  0.10839795     0.18500
C133        C  0.46528089  0.86278794  0.13973706     0.15700
C134        C  0.47484663  0.88670444  0.17152414    -0.18800
C135        C  0.42939344  0.81712023  0.13830866    -0.20600
C136        C  0.41832190  0.79414147  0.10577710    -0.13100
C137        C  0.44248297  0.81645895  0.07388542     0.03500
C138        C  0.47949922  0.86199230  0.07564216    -0.25300
H139        H  0.56572933  0.98920917  0.14236393     0.08600
H140        H  0.54865675  0.94822850  0.08646928     0.12200
H141        H  0.45389446  0.86997113  0.19511650     0.12100
H142        H  0.40934138  0.79929198  0.16214893     0.11900
H143        H  0.38974631  0.75910532  0.10523938     0.12400
H144        H  0.49876467  0.87952187  0.05138224     0.14400
C145        C  0.43996971  0.81629021  0.43739884    -0.05600
C146        C  0.41217748  0.79480299  0.40719819    -0.05600
C147        C  0.42143803  0.81805606  0.37539907    -0.23700
C148        C  0.45919485  0.86306367  0.37289829     0.18500
C149        C  0.48843729  0.88453389  0.40249996     0.15700
C150        C  0.47833206  0.86119734  0.43472814    -0.18800
C151        C  0.52700229  0.92913716  0.39950425    -0.20600
C152        C  0.53608857  0.95248851  0.36784440    -0.13100
C153        C  0.50636075  0.93199622  0.33893861     0.03500
C154        C  0.46796607  0.88710976  0.34155374    -0.25300
H155        H  0.38238963  0.76026589  0.40864569     0.08600
H156        H  0.39882311  0.80091858  0.35289893     0.12200
H157        H  0.50020426  0.87795455  0.45775590     0.12100
H158        H  0.54995959  0.94608688  0.42178188     0.11900
H159        H  0.56571726  0.98710813  0.36646511     0.12400
H160        H  0.44500481  0.87100845  0.31924420     0.14400
C161        C  0.55127559  0.09435592  0.33188348    -0.05600
C162        C  0.59122461  0.13852562  0.33307657    -0.05600
C163        C  0.59897735  0.16719665  0.35928600    -0.23700
C164        C  0.56725630  0.15185987  0.38537669     0.18500
C165        C  0.52692075  0.10742158  0.38432311     0.15700
C166        C  0.51888674  0.07921375  0.35718875    -0.18800
C167        C  0.49579423  0.09150573  0.41116576    -0.20600
C168        C  0.50508647  0.11886817  0.43951198    -0.13100
C169        C  0.54513855  0.16295494  0.44107008     0.03500
C170        C  0.57578317  0.17965391  0.41334202    -0.25300
H171        H  0.61647721  0.15094170  0.31357000     0.08600
H172        H  0.63008232  0.20104020  0.35965254     0.12200
H173        H  0.48810873  0.04512463  0.35660472     0.12100
H174        H  0.46482111  0.05756805  0.41088464     0.11900
H175        H  0.48108958  0.10532816  0.46068666     0.12400
H176        H  0.60703916  0.21337394  0.41470076     0.14400
C177        C  0.55674078  0.17593218  0.07477603    -0.05600
C178        C  0.51340751  0.13674142  0.08116057    -0.05600
C179        C  0.50262333  0.10878415  0.10950426    -0.23700
C180        C  0.53522794  0.11890941  0.13127412     0.18500
C181        C  0.57890400  0.15894697  0.12571507     0.15700
C182        C  0.58932027  0.18772500  0.09791757    -0.18800
C183        C  0.61157769  0.16834027  0.14676889    -0.20600
C184        C  0.60128527  0.13788585  0.17225012    -0.13100
C185        C  0.55804539  0.09769240  0.17764226     0.03500
C186        C  0.52504329  0.08884934  0.15746105    -0.25300
H187        H  0.48801869  0.12695184  0.06320406     0.08600
H188        H  0.46900935  0.07828569  0.11330679     0.12200
H189        H  0.62292182  0.21743810  0.09249758     0.12100
H190        H  0.64521330  0.19878565  0.14294915     0.11900
H191        H  0.62732002  0.14583971  0.18775868     0.12400
H192        H  0.49158966  0.05803819  0.16132767     0.14400
C193        C  0.94064228  0.51580332  0.32968208    -0.05600
C194        C  0.96288685  0.54552999  0.35883005    -0.05600
C195        C  0.94070238  0.53890889  0.39033251    -0.23700
C196        C  0.89565377  0.50291556  0.39293421     0.18500
C197        C  0.87258782  0.47422859  0.36291809     0.15700
C198        C  0.89529010  0.48045878  0.33167086    -0.18800
C199        C  0.82735677  0.43915197  0.36509551    -0.20600
C200        C  0.80539947  0.43154529  0.39714413    -0.13100
C201        C  0.82825924  0.45837538  0.42787662     0.03500
C202        C  0.87346312  0.49453166  0.42531423    -0.25300
H203        H  0.99783521  0.57281365  0.35791835     0.08600
H204        H  0.95889634  0.56146253  0.41291456     0.12200
H205        H  0.87786854  0.45755462  0.30917179     0.12100
H206        H  0.80904216  0.41709130  0.34226401     0.11900
H207        H  0.77061748  0.40348411  0.39833350     0.12400
H208        H  0.89142969  0.51576929  0.44865368     0.14400
C209        C  0.83661117  0.46097850  0.06172140    -0.05600
C210        C  0.81512239  0.42675124  0.08723717    -0.05600
C211        C  0.83631925  0.43140559  0.11847385    -0.23700
C212        C  0.87923511  0.47080395  0.12528269     0.18500
C213        C  0.90083589  0.50613203  0.10049996     0.15700
C214        C  0.87961318  0.50079173  0.06851164    -0.18800
C215        C  0.94333678  0.54599385  0.10812407    -0.20600
C216        C  0.96441363  0.55048022  0.13955883    -0.13100
C217        C  0.94372272  0.51500646  0.16365864     0.03500
C218        C  0.90093461  0.47525317  0.15635586    -0.25300
H219        H  0.78206673  0.39571426  0.08251937     0.08600
H220        H  0.81917081  0.40408970  0.13723498     0.12200
H221        H  0.89628112  0.52749732  0.04914626     0.12100
H222        H  0.96038039  0.57357726  0.08967981     0.11900
H223        H  0.99745869  0.58141235  0.14448677     0.12400
H224        H  0.88452004  0.44778338  0.17485339     0.14400
C225        C  0.51582698  0.44555726  0.15945146    -0.05600
C226        C  0.48719597  0.42778310  0.12995548    -0.05600
C227        C  0.49536036  0.41749563  0.09750669    -0.23700
C228        C  0.53177092  0.42380785  0.09430821     0.18500
C229        C  0.55993113  0.44011407  0.12433717     0.15700
C230        C  0.55220579  0.45163334  0.15651921    -0.18800
C231        C  0.59544389  0.44487069  0.12150719    -0.20600
C232        C  0.60321284  0.43398795  0.08916004    -0.13100
C233        C  0.57623049  0.41915648  0.05880636     0.03500
C234        C  0.54052505  0.41417631  0.06158496    -0.25300
H235        H  0.45929812  0.42338092  0.13156694     0.08600
H236        H  0.47332036  0.40483536  0.07484150     0.12200
H237        H  0.57437915  0.46527738  0.17925312     0.12100
H238        H  0.61722586  0.45703432  0.14428668     0.11900
H239        H  0.63097639  0.43817319  0.08758230     0.12400
H240        H  0.51926694  0.40229200  0.03841361     0.14400
C241        C  0.51144970  0.43605273  0.32587449    -0.05600
C242        C  0.47656743  0.40595346  0.34970234    -0.05600
C243        C  0.48239173  0.39267015  0.38151603    -0.23700
C244        C  0.52305473  0.40867832  0.38978896     0.18500
C245        C  0.55767812  0.43680317  0.36487807     0.15700
C246        C  0.55178395  0.45064474  0.33327876    -0.18800
C247        C  0.59791758  0.45150677  0.37250954    -0.20600
C248        C  0.60416699  0.43953815  0.40498214    -0.13100
C249        C  0.57065675  0.41355453  0.43071178     0.03500
C250        C  0.52997028  0.39782618  0.42284233    -0.25300
H251        H  0.44520566  0.39424844  0.34461490     0.08600
H252        H  0.45533338  0.37064879  0.40004017     0.12200
H253        H  0.57879126  0.47348284  0.31487784     0.12100
H254        H  0.62471348  0.47273262  0.35360922     0.11900
H255        H  0.63571648  0.45187508  0.41061302     0.12400
H256        H  0.50385125  0.37728124  0.44246068     0.14400
C257        C  0.42110153  0.57534517  0.42773852    -0.05600
C258        C  0.38967880  0.55227827  0.40013359    -0.05600
C259        C  0.39603187  0.53837402  0.36894186    -0.23700
C260        C  0.43430192  0.54803242  0.36452326     0.18500
C261        C  0.46701699  0.57318839  0.39132326     0.15700
C262        C  0.46002817  0.58623536  0.42283525    -0.18800
C263        C  0.50588815  0.58419067  0.38650172    -0.20600
C264        C  0.51198401  0.56960106  0.35583516    -0.13100
C265        C  0.47905506  0.54301682  0.32973382     0.03500
C266        C  0.44025683  0.53253695  0.33412221    -0.25300
H267        H  0.35942492  0.54343021  0.40336177     0.08600
H268        H  0.37073639  0.51949344  0.34855093     0.12200
H269        H  0.48470794  0.60445913  0.44379801     0.12100
H270        H  0.53143433  0.60372139  0.40664243     0.11900
H271        H  0.54206596  0.57802506  0.35307469     0.12400
H272        H  0.41483677  0.51243098  0.31392583     0.14400
C273        C  0.48145175  0.54901801  0.16654132    -0.05600
C274        C  0.51386555  0.57592385  0.14007934    -0.05600
C275        C  0.50650678  0.58961543  0.10964427    -0.23700
C276        C  0.46690361  0.57733553  0.10554541     0.18500
C277        C  0.43497891  0.55220824  0.13301843     0.15700
C278        C  0.44223110  0.53774595  0.16306820    -0.18800
C279        C  0.39595079  0.54115999  0.12954849    -0.20600
C280        C  0.38806618  0.55376502  0.09865620    -0.13100
C281        C  0.41861896  0.57673752  0.07039533     0.03500
C282        C  0.45823028  0.58884039  0.07412595    -0.25300
H283        H  0.54423733  0.58483672  0.14216048     0.08600
H284        H  0.53149927  0.60918144  0.08902924     0.12200
H285        H  0.41718315  0.51728821  0.18353965     0.12100
H286        H  0.37124006  0.52216360  0.15044210     0.11900
H287        H  0.35722598  0.54384455  0.09608887     0.12400
H288        H  0.48197579  0.60671463  0.05239457     0.14400
O289        O  0.49724011  0.53703741  0.71194792    -0.73300
O290        O  0.52920578  0.49180459  0.78388094    -0.74300
O291        O  0.52457803  0.49267772  0.70667632    -0.62900
O292        O  0.50272248  0.53636080  0.78999480    -0.71300
O293        O  0.43349705  0.47318522  0.79203975    -0.70900
O294        O  0.45542581  0.42933026  0.70786741    -0.62100
O295        O  0.45998563  0.42859813  0.78604595    -0.74700
O296        O  0.42833664  0.47350389  0.71506842    -0.73400
Cu297      Cu  0.51580210  0.51672456  0.74798041     1.04600
Cu298      Cu  0.44197327  0.44888469  0.75024733     1.04300
C299        C  0.45768864  0.51218520  0.70200717     0.92900
C300        C  0.49904737  0.45329389  0.79712122     0.92000
C301        C  0.49337535  0.45422828  0.69385102     0.84200
C302        C  0.46520109  0.51166165  0.80467885     0.90400
C303        C  0.80528401  0.44254196  0.52719224     0.79800
N304        N  0.83489680  0.46895785  0.99534789    -0.78500
C305        C  0.81234776  0.45744392  0.96389987     0.82300
N306        N  0.76884478  0.43125136  0.96539104    -0.78400
C307        C  0.74783284  0.41655247  0.99768766     0.82400
N308        N  0.76198180  0.41762309  0.52753243    -0.80100
C309        C  0.57684959  0.40475007  0.53030397     0.79800
N310        N  0.56677170  0.41030842  0.49748195    -0.78500
C311        C  0.58712363  0.41045560  0.95997296     0.82300
N312        N  0.60646815  0.39545757  0.96027900    -0.78400
C313        C  0.61456264  0.38667335  0.99248810     0.82400
N314        N  0.59828908  0.39197969  0.53158758    -0.80100
C315        C  0.63014243  0.31006885  0.00242202     0.02700
C316        C  0.67547113  0.34042481  0.00309393    -0.13400
C317        C  0.70056378  0.38536240  0.99841524     0.00200
C318        C  0.68039482  0.40014236  0.99337818    -0.11900
C319        C  0.63511365  0.37019709  0.99354401     0.02700
C320        C  0.60995570  0.32506914  0.99784834    -0.11400
H321        H  0.69121603  0.32902941  0.00644936     0.08300
H322        H  0.69990248  0.43497328  0.99017241     0.05900
H323        H  0.57487784  0.30179634  0.99789886     0.05700
C324        C  0.56571293  0.19471055  0.97603422     0.79800
N325        N  0.55419063  0.17517163  0.00897829    -0.78500
C326        C  0.55506236  0.19277443  0.53771477     0.82300
N327        N  0.58077195  0.23685706  0.53585908    -0.78400
C328        C  0.60411835  0.26275160  0.00500578     0.82400
N329        N  0.59085046  0.23867685  0.97402962    -0.80100
O330        O  0.49795774  0.03171216  0.79345164    -0.73300
O331        O  0.47071432  0.94811753  0.71589344    -0.74300
O332        O  0.47197583  0.94919467  0.79383721    -0.62900
O333        O  0.49671894  0.03104763  0.71598848    -0.71300
O334        O  0.56572285  0.06542726  0.71548809    -0.70900
O335        O  0.54139311  0.98483577  0.79378320    -0.62100
O336        O  0.54005141  0.98342739  0.71527430    -0.74700
O337        O  0.56725657  0.06692672  0.79171450    -0.73400
Cu338      Cu  0.48184108  0.98863441  0.75480076     1.04600
Cu339      Cu  0.55584777  0.02603534  0.75402037     1.04300
C340        C  0.53705837  0.06286151  0.80438529     0.92900
C341        C  0.50160388  0.95356481  0.70262598     0.92000
C342        C  0.50314612  0.95511606  0.80696298     0.84200
C343        C  0.53540860  0.06173316  0.70393118     0.90400
O344        O  0.95084410  0.48181599  0.78488906    -0.73300
O345        O  0.02425786  0.49002231  0.70891887    -0.74300
O346        O  0.02380514  0.49225579  0.78652948    -0.62900
O347        O  0.95079199  0.47883695  0.70739546    -0.71300
O348        O  0.99498162  0.55119922  0.70547066    -0.70900
O349        O  0.06808471  0.56462301  0.78413187    -0.62100
O350        O  0.06795284  0.56236361  0.70793826    -0.74700
O351        O  0.99590907  0.55436682  0.78330689    -0.73400
Cu352      Cu  0.98572544  0.48310827  0.74697200     1.04600
Cu353      Cu  0.03301768  0.56051566  0.74511024     1.04300
C354        C  0.96262141  0.51715174  0.79663441     0.92900
C355        C  0.05832529  0.52795513  0.69699683     0.92000
C356        C  0.05790129  0.53070907  0.79746083     0.84200
C357        C  0.96164798  0.51290647  0.69357640     0.90400
C358        C  0.39986333  0.57563718  0.97206400     0.79800
N359        N  0.42786551  0.58346679  0.49399357    -0.78500
C360        C  0.41877185  0.59011874  0.52676037     0.82300
N361        N  0.39458584  0.59964275  0.52833650    -0.78400
C362        C  0.37940133  0.60222907  0.49723089     0.82400
N363        N  0.37914902  0.58913633  0.97202342    -0.80100
C364        C  0.35890867  0.67913870  0.00373018     0.02700
C365        C  0.37819781  0.66300743  0.00595955    -0.13400
C366        C  0.35756909  0.61760272  0.49879774     0.00200
C367        C  0.31205570  0.58784516  0.49752590    -0.10200
C368        C  0.29206645  0.60336841  0.49947804     0.02700
C369        C  0.31383279  0.64961470  0.99946031    -0.11400
H370        H  0.41304749  0.68574188  0.00902164     0.08300
H371        H  0.29234826  0.55289086  0.49530506     0.05900
H372        H  0.29873711  0.66186640  0.99836848     0.05700
C373        C  0.17429872  0.53324254  0.96675927     0.79800
N374        N  0.15312881  0.51794599  0.99914991    -0.78500
C375        C  0.17827751  0.53321565  0.52969449     0.82300
N376        N  0.22196791  0.55977593  0.53031379    -0.78400
C377        C  0.24451474  0.57293651  0.49860619     0.82400
N378        N  0.21828433  0.56145203  0.96610124    -0.80100
C379        C  0.42069232  0.79321833  0.97476652     0.79800
N380        N  0.39470680  0.74900265  0.97403754    -0.78500
C381        C  0.38586646  0.72678060  0.00512045     0.82300
N382        N  0.39832205  0.74693880  0.53586322    -0.78400
C383        C  0.42261499  0.79085798  0.53623861     0.82400
N384        N  0.43717337  0.81497136  0.00703402    -0.80100
C385        C  0.14970250  0.52335882  0.93344381    -0.05600
C386        C  0.10706641  0.48208728  0.92914462    -0.05600
C387        C  0.08134984  0.47427289  0.90028898    -0.23700
C388        C  0.09740626  0.50806759  0.87584235     0.18500
C389        C  0.14045489  0.54958715  0.87975544     0.15700
C390        C  0.16660818  0.55668312  0.90805146    -0.18800
C391        C  0.15608624  0.58385684  0.85617940    -0.20600
C392        C  0.12911700  0.57744501  0.82952533    -0.13100
C393        C  0.08620116  0.53643368  0.82541382     0.03500
C394        C  0.07075841  0.50153925  0.84833814    -0.25300
H395        H  0.09338564  0.45605445  0.94856754     0.08600
H396        H  0.04845461  0.44226900  0.89782052     0.12200
H397        H  0.19917284  0.58887378  0.91159271     0.12100
H398        H  0.18892001  0.61590779  0.85881058     0.11900
H399        H  0.14195496  0.60473587  0.81201484     0.12400
H400        H  0.03768597  0.46980885  0.84554968     0.14400
C401        C  0.15340454  0.52194117  0.56324091    -0.05600
C402        C  0.11014870  0.48114032  0.56597377    -0.05600
C403        C  0.08368719  0.47268026  0.59447550    -0.23700
C404        C  0.09964847  0.50542300  0.62015372     0.18500
C405        C  0.14343140  0.54632290  0.61800790     0.15700
C406        C  0.17029559  0.55397069  0.59004501    -0.18800
C407        C  0.15902509  0.57966851  0.64278393    -0.20600
C408        C  0.13123651  0.57317675  0.66858790    -0.13100
C409        C  0.08751648  0.53293004  0.67069717     0.03500
C410        C  0.07214778  0.49868497  0.64693158    -0.25300
H411        H  0.09647785  0.45614080  0.54540720     0.08600
H412        H  0.05026490  0.44118384  0.59556980     0.12200
H413        H  0.20335556  0.58585127  0.58768818     0.12100
H414        H  0.19241181  0.61121273  0.64157187     0.11900
H415        H  0.14397912  0.59989341  0.68689230     0.12400
H416        H  0.03845750  0.46760607  0.64822575     0.14400
C417        C  0.49368812  0.92712905  0.67102915    -0.05600
C418        C  0.52583780  0.94709127  0.64413484    -0.05600
C419        C  0.51821284  0.92435382  0.61252039    -0.23700
C420        C  0.47860926  0.88074415  0.60752732     0.18500
C421        C  0.44648278  0.85961695  0.63494769     0.15700
C422        C  0.45390528  0.88321454  0.66629879    -0.18800
C423        C  0.40752185  0.81538672  0.63032988    -0.20600
C424        C  0.40030578  0.79259423  0.59872121    -0.13100
C425        C  0.43144860  0.81389210  0.57079380     0.03500
C426        C  0.47060782  0.85803630  0.57547666    -0.25300
H427        H  0.55654644  0.98096219  0.64705086     0.08600
H428        H  0.54328128  0.94097604  0.59189063     0.12200
H429        H  0.42899765  0.86747863  0.68700523     0.12100
H430        H  0.38259093  0.79846288  0.65109248     0.11900
H431        H  0.36981473  0.75863498  0.59563541     0.12400
H432        H  0.49500476  0.87462579  0.55423327     0.14400
C433        C  0.42984584  0.81724309  0.94087560    -0.05600
C434        C  0.39731112  0.79783599  0.91451850    -0.05600
C435        C  0.40510456  0.82080165  0.88298075    -0.23700
C436        C  0.44597279  0.86322537  0.87675533     0.18500
C437        C  0.47938734  0.88252266  0.90255863     0.15700
C438        C  0.47089432  0.85975040  0.93474666    -0.18800
C439        C  0.52068933  0.92427737  0.89569733    -0.20600
C440        C  0.52865454  0.94698077  0.86390021    -0.13100
C441        C  0.49528979  0.92882605  0.83867975     0.03500
C442        C  0.45394064  0.88674220  0.84528727    -0.25300
H443        H  0.36544515  0.76517301  0.91872987     0.08600
H444        H  0.37916159  0.80534709  0.86343759     0.12200
H445        H  0.49633212  0.87477133  0.95476688     0.12100
H446        H  0.54679355  0.93949670  0.91501326     0.11900
H447        H  0.56066746  0.97946217  0.85958937     0.12400
H448        H  0.42802323  0.87231717  0.82593666     0.14400
C449        C  0.54773702  0.09446729  0.83192647    -0.05600
C450        C  0.58954982  0.13722388  0.83319733    -0.05600
C451        C  0.60053917  0.16685616  0.86006837    -0.23700
C452        C  0.57014759  0.15384386  0.88667588     0.18500
C453        C  0.52796214  0.11084257  0.88555957     0.15700
C454        C  0.51677823  0.08175249  0.85780552    -0.18800
C455        C  0.49808152  0.09708429  0.91295380    -0.20600
C456        C  0.51027564  0.12513226  0.94179061    -0.13100
C457        C  0.55203113  0.16782723  0.94320354     0.03500
C458        C  0.58166390  0.18245477  0.91513881    -0.25300
H459        H  0.61382589  0.14776625  0.81331284     0.08600
H460        H  0.63301822  0.19953118  0.86051442     0.12200
H461        H  0.48461145  0.04872428  0.85720785     0.12100
H462        H  0.46576083  0.06423850  0.91266397     0.11900
H463        H  0.48714765  0.11326679  0.96337956     0.12400
H464        H  0.61421183  0.21503684  0.91653781     0.14400
C465        C  0.54398297  0.17036801  0.57270567    -0.05600
C466        C  0.50049732  0.13310442  0.58105435    -0.05600
C467        C  0.48988050  0.10620606  0.61038844    -0.23700
C468        C  0.52273392  0.11530790  0.63095126     0.18500
C469        C  0.56664268  0.15339032  0.62313108     0.15700
C470        C  0.57695809  0.18122478  0.59452976    -0.18800
C471        C  0.59952506  0.16173255  0.64277808    -0.20600
C472        C  0.58914227  0.13197778  0.66907484    -0.13100
C473        C  0.54565796  0.09359267  0.67672799     0.03500
C474        C  0.51251150  0.08599904  0.65805011    -0.25300
H475        H  0.47479833  0.12407317  0.56407776     0.08600
H476        H  0.45606915  0.07719409  0.61590757     0.12200
H477        H  0.61059927  0.20943415  0.58753847     0.12100
H478        H  0.63332812  0.19069989  0.63716143     0.11900
H479        H  0.61533040  0.13897406  0.68333547     0.12400
H480        H  0.47886063  0.05658819  0.66366605     0.14400
C481        C  0.93910356  0.51546667  0.82707306    -0.05600
C482        C  0.96212657  0.54969859  0.85274666    -0.05600
C483        C  0.94161418  0.54645137  0.88404222    -0.23700
C484        C  0.89745607  0.50924045  0.88986654     0.18500
C485        C  0.87339556  0.47592367  0.86300890     0.15700
C486        C  0.89446962  0.47892323  0.83203361    -0.18800
C487        C  0.82890649  0.43954745  0.86811107    -0.20600
C488        C  0.80888145  0.43511350  0.90023729    -0.13100
C489        C  0.83306049  0.46651077  0.92819101     0.03500
C490        C  0.87726558  0.50408874  0.92251838    -0.25300
H491        H  0.99656910  0.57822013  0.84939113     0.08600
H492        H  0.96049696  0.57258246  0.90403757     0.12200
H493        H  0.87637180  0.45266988  0.81209243     0.12100
H494        H  0.80980273  0.41397991  0.84766962     0.11900
H495        H  0.77473270  0.40584138  0.90391147     0.12400
H496        H  0.89601627  0.52871862  0.94372422     0.14400
C497        C  0.82773884  0.44999116  0.56125667    -0.05600
C498        C  0.80765444  0.41533535  0.58605151    -0.05600
C499        C  0.82948979  0.42090050  0.61726988    -0.23700
C500        C  0.87148978  0.46157985  0.62466134     0.18500
C501        C  0.89132049  0.49719058  0.60061367     0.15700
C502        C  0.86959763  0.49098322  0.56874014    -0.18800
C503        C  0.93273780  0.53822887  0.60868274    -0.20600
C504        C  0.95484420  0.54363282  0.63965074    -0.13100
C505        C  0.93627216  0.50797633  0.66287508     0.03500
C506        C  0.89420449  0.46706832  0.65539449    -0.25300
H507        H  0.77544826  0.38345065  0.58068588     0.08600
H508        H  0.81365171  0.39330965  0.63547751     0.12200
H509        H  0.88507384  0.51795326  0.54986002     0.12100
H510        H  0.94827809  0.56602000  0.59080114     0.11900
H511        H  0.98714644  0.57547959  0.64478918     0.12400
H512        H  0.87928758  0.43941465  0.67328807     0.14400
C513        C  0.50132910  0.43906901  0.66215182    -0.05600
C514        C  0.46917290  0.41210062  0.63555070    -0.05600
C515        C  0.47750008  0.40007706  0.60434720    -0.23700
C516        C  0.51779472  0.41386132  0.59959443     0.18500
C517        C  0.54985224  0.43971794  0.62682387     0.15700
C518        C  0.54171477  0.45282216  0.65755329    -0.18800
C519        C  0.58950464  0.45203907  0.62279382    -0.20600
C520        C  0.59751633  0.43924818  0.59198091    -0.13100
C521        C  0.56654601  0.41492477  0.56414241     0.03500
C522        C  0.52666704  0.40236660  0.56811289    -0.25300
H523        H  0.43795322  0.40133186  0.63842380     0.08600
H524        H  0.45240118  0.38000098  0.58390391     0.12200
H525        H  0.56662963  0.47336226  0.67808607     0.12100
H526        H  0.61438033  0.47163546  0.64347253     0.11900
H527        H  0.62853179  0.44953918  0.58935300     0.12400
H528        H  0.50247686  0.38336385  0.54683089     0.14400
C529        C  0.50847108  0.43811395  0.82727454    -0.05600
C530        C  0.47685238  0.41109159  0.85425698    -0.05600
C531        C  0.48609521  0.40012288  0.88525975    -0.23700
C532        C  0.52686540  0.41511315  0.88953199     0.18500
C533        C  0.55844834  0.44063021  0.86185412     0.15700
C534        C  0.54930349  0.45264401  0.83106107    -0.18800
C535        C  0.59865671  0.45401703  0.86585564    -0.20600
C536        C  0.60762878  0.44289516  0.89724842    -0.13100
C537        C  0.57696511  0.41922332  0.92542603     0.03500
C538        C  0.53660951  0.40531034  0.92127847    -0.25300
H539        H  0.44534513  0.39981472  0.85206896     0.08600
H540        H  0.46145552  0.38026894  0.90610376     0.12200
H541        H  0.57380580  0.47331014  0.81025948     0.12100
H542        H  0.62320152  0.47328184  0.84487355     0.11900
H543        H  0.63899643  0.45398719  0.90006254     0.12400
H544        H  0.51268865  0.38665565  0.94283003     0.14400
C545        C  0.40558825  0.56161557  0.93804259    -0.05600
C546        C  0.37206554  0.53609531  0.91229812    -0.05600
C547        C  0.37642259  0.52026444  0.88130262    -0.23700
C548        C  0.41487522  0.53069940  0.87506963     0.18500
C549        C  0.44926758  0.55756875  0.90033818     0.15700
C550        C  0.44411689  0.57216961  0.93189616    -0.18800
C551        C  0.48832629  0.56949543  0.89360713    -0.20600
C552        C  0.49338786  0.55503484  0.86214853    -0.13100
C553        C  0.45919948  0.52748643  0.83721493     0.03500
C554        C  0.41973893  0.51506527  0.84398296    -0.25300
H555        H  0.34200236  0.52737153  0.91669444     0.08600
H556        H  0.34977620  0.49994651  0.86220233     0.12200
H557        H  0.47024391  0.59214099  0.95153659     0.12100
H558        H  0.51506763  0.59020489  0.91258747     0.11900
H559        H  0.52392600  0.56473884  0.85762299     0.12400
H560        H  0.39328580  0.49405175  0.82477230     0.14400
C561        C  0.44543366  0.52725618  0.67448234    -0.05600
C562        C  0.40231257  0.50726044  0.67232513    -0.05600
C563        C  0.38929389  0.51827276  0.64453273    -0.23700
C564        C  0.41891590  0.54878863  0.61780554     0.18500
C565        C  0.46246714  0.56934816  0.61980020     0.15700
C566        C  0.47564620  0.55912599  0.64852269    -0.18800
C567        C  0.49163555  0.59839708  0.59218481    -0.20600
C568        C  0.47747213  0.60583517  0.56232388    -0.13100
C569        C  0.43433666  0.58561222  0.56013852     0.03500
C570        C  0.40536032  0.55779881  0.58837255    -0.25300
H571        H  0.37843550  0.48265407  0.69201354     0.08600
H572        H  0.35576096  0.50201083  0.64338925     0.12200
H573        H  0.50883052  0.57432647  0.64962618     0.12100
H574        H  0.52504798  0.61427862  0.59309675     0.11900
H575        H  0.50015152  0.62715384  0.54065467     0.12400
H576        H  0.37181115  0.54142306  0.58642444     0.14400
loop_ 
_geom_bond_atom_site_label_1 
_geom_bond_atom_site_label_2 
_geom_bond_distance 
_geom_bond_site_symmetry_2 
_ccdc_geom_bond_type 
O1           Cu9   2.023       .  S
O1           C11   1.280       .  A
O2           Cu9   2.011       .  S
O2           C12   1.278       .  A
O3           Cu9   2.007       .  S
O3           C13   1.277       .  A
O4           Cu9   2.018       .  S
O4           C14   1.280       .  A
O5          Cu10   2.016       .  S
O5           C14   1.278       .  A
O6          Cu10   2.023       .  S
O6           C13   1.280       .  A
O7          Cu10   2.019       .  S
O7           C12   1.279       .  A
O8          Cu10   2.002       .  S
O8           C11   1.277       .  A
Cu9         Cu10   2.372       .  S
C11         C273   1.478       .  S
C12         C241   1.482       .  S
C13         C225   1.476       .  S
C14         C265   1.482       .  S
C15         C209   1.480       .  S
C15          N20   1.359       .  A
C15         N304   1.363   1_554  A
N16          C17   1.362       .  A
N16         C303   1.360       .  A
C17         C201   1.486       .  S
C17          N18   1.363       .  A
N18          C19   1.360       .  A
C19          C29   1.470       .  S
C19         N308   1.357       .  A
N20         C307   1.354   1_554  A
C21         C233   1.479       .  S
C21          N22   1.358   1_554  A
C21          N26   1.357       .  A
N22         C311   1.360       .  A
C23         C249   1.476       .  S
C23          N24   1.358       .  A
C23         N310   1.360       .  A
N24          C25   1.358       .  A
C25          C31   1.475       .  S
C25         N314   1.362       .  A
N26         C313   1.357   1_554  A
C27          C40   1.471       .  S
C27          C28   1.400       .  A
C27          C32   1.404       .  A
C28          C29   1.402       .  A
C28          H33   1.084       .  S
C29          C30   1.407       .  A
C30          C31   1.407       .  A
C30          H34   1.084       .  S
C31          C32   1.406       .  A
C32          H35   1.084       .  S
C36         C169   1.478       .  S
C36          N37   1.356       .  A
C36          N41   1.361       .  A
N37         C326   1.354       .  A
C38         C177   1.472       .  S
C38          N39   1.361       .  A
C38         N325   1.354       .  A
N39         C328   1.364       .  A
C40          N41   1.363       .  A
C40         N327   1.361       .  A
O42         Cu50   2.015   1_545  S
O42          C52   1.279       .  A
O43         Cu50   2.012       .  S
O43          C53   1.277       .  A
O44         Cu50   2.016       .  S
O44          C54   1.278       .  A
O45         Cu50   2.026   1_545  S
O45          C55   1.281       .  A
O46         Cu51   2.001       .  S
O46          C55   1.277       .  A
O47         Cu51   2.019   1_565  S
O47          C54   1.279       .  A
O48         Cu51   2.026   1_565  S
O48          C53   1.280       .  A
O49         Cu51   2.009       .  S
O49          C52   1.278       .  A
Cu50        Cu51   2.372   1_565  S
C52         C161   1.478       .  S
C53         C129   1.478       .  S
C54         C153   1.480       .  S
C55         C185   1.484       .  S
O56         Cu64   2.016       .  S
O56          C66   1.278       .  A
O57         Cu64   2.016   1_455  S
O57          C67   1.278       .  A
O58         Cu64   2.026   1_455  S
O58          C68   1.281       .  A
O59         Cu64   2.018       .  S
O59          C69   1.280       .  A
O60         Cu65   2.015       .  S
O60          C69   1.278   1_455  A
O61         Cu65   2.001       .  S
O61          C68   1.277       .  A
O62         Cu65   2.005       .  S
O62          C67   1.279       .  A
O63         Cu65   2.023   1_655  S
O63          C66   1.280       .  A
Cu64        Cu65   2.371   1_655  S
C66         C193   1.480       .  S
C67         C121   1.481       .  S
C68         C105   1.483       .  S
C69         C217   1.483       .  S
C70         C257   1.483       .  S
C70          N75   1.363       .  A
C70         N359   1.358       .  A
N71          C72   1.358       .  A
N71         C358   1.358   1_554  A
C72         C281   1.476       .  S
C72          N73   1.361       .  A
N73          C74   1.360       .  A
C74          C78   1.473       .  S
C74         N363   1.360   1_554  A
N75         C362   1.363       .  A
C76          C93   1.471       .  S
C76          C77   1.404       .  A
C76          C81   1.400       .  A
C77         C366   1.406       .  A
C77          H82   1.084       .  S
C78          C79   1.403   1_554  A
C78         C365   1.406       .  A
C79          C80   1.404       .  A
C79          H83   1.084       .  S
C80          C89   1.469       .  S
C80         C369   1.403       .  A
C81         C368   1.402       .  A
C81          H84   1.084       .  S
C85          C97   1.476       .  S
C85          N86   1.355       .  A
C85          N90   1.361       .  A
N86         C375   1.354       .  A
C87         C113   1.472       .  S
C87          N88   1.357       .  A
C87         N374   1.356   1_554  A
N88          C89   1.357   1_554  A
C89         N378   1.361       .  A
N90         C377   1.363       .  A
C91         C145   1.482       .  S
C91          N92   1.359       .  A
C91          N96   1.360       .  A
N92          C93   1.358       .  A
C93         N382   1.360       .  A
N94          C95   1.362       .  A
N94         C381   1.360       .  A
C95         C137   1.486       .  S
C95         N384   1.362       .  A
N96         C383   1.361       .  A
C97          C98   1.405       .  A
C97         C102   1.405       .  A
C98          C99   1.397       .  A
C98         H107   1.083       .  S
C99         C100   1.401       .  A
C99         H108   1.084       .  S
C100        C106   1.406       .  A
C100        C101   1.415       .  A
C101        C103   1.401       .  A
C101        C102   1.407       .  A
C102        H109   1.084       .  S
C103        C104   1.398       .  A
C103        H110   1.084       .  S
C104        C105   1.407       .  A
C104        H111   1.083       .  S
C105        C106   1.406       .  A
C106        H112   1.084       .  S
C113        C114   1.404       .  A
C113        C118   1.402       .  A
C114        C115   1.400       .  A
C114        H123   1.083       .  S
C115        C116   1.404       .  A
C115        H124   1.083       .  S
C116        C122   1.406       .  A
C116        C117   1.414       .  A
C117        C119   1.400       .  A
C117        C118   1.402       .  A
C118        H125   1.085       .  S
C119        C120   1.395       .  A
C119        H126   1.084       .  S
C120        C121   1.406       .  A
C120        H127   1.083       .  S
C121        C122   1.408       .  A
C122        H128   1.084       .  S
C129        C130   1.403       .  A
C129        C134   1.406       .  A
C130        C131   1.399       .  A
C130        H139   1.083       .  S
C131        C132   1.403       .  A
C131        H140   1.084       .  S
C132        C138   1.407       .  A
C132        C133   1.414       .  A
C133        C135   1.403       .  A
C133        C134   1.409       .  A
C134        H141   1.084       .  S
C135        C136   1.400       .  A
C135        H142   1.084       .  S
C136        C137   1.407       .  A
C136        H143   1.083       .  S
C137        C138   1.408       .  A
C138        H144   1.084       .  S
C145        C146   1.406       .  A
C145        C150   1.406       .  A
C146        C147   1.399       .  A
C146        H155   1.083       .  S
C147        C148   1.403       .  A
C147        H156   1.084       .  S
C148        C154   1.408       .  A
C148        C149   1.415       .  A
C149        C151   1.402       .  A
C149        C150   1.407       .  A
C150        H157   1.085       .  S
C151        C152   1.399       .  A
C151        H158   1.084       .  S
C152        C153   1.405       .  A
C152        H159   1.083       .  S
C153        C154   1.406       .  A
C154        H160   1.084       .  S
C161        C162   1.405       .  A
C161        C166   1.404       .  A
C162        C163   1.399       .  A
C162        H171   1.084       .  S
C163        C164   1.403       .  A
C163        H172   1.083       .  S
C164        C170   1.408       .  A
C164        C165   1.415       .  A
C165        C167   1.401       .  A
C165        C166   1.405       .  A
C166        H173   1.083       .  S
C167        C168   1.396       .  A
C167        H174   1.083       .  S
C168        C169   1.405       .  A
C168        H175   1.084       .  S
C169        C170   1.406       .  A
C170        H176   1.083       .  S
C177        C178   1.404       .  A
C177        C182   1.404       .  A
C178        C179   1.396       .  A
C178        H187   1.084       .  S
C179        C180   1.401       .  A
C179        H188   1.084       .  S
C180        C186   1.406       .  A
C180        C181   1.416       .  A
C181        C183   1.401       .  A
C181        C182   1.408       .  A
C182        H189   1.084       .  S
C183        C184   1.398       .  A
C183        H190   1.084       .  S
C184        C185   1.408       .  A
C184        H191   1.083       .  S
C185        C186   1.406       .  A
C186        H192   1.084       .  S
C193        C194   1.404       .  A
C193        C198   1.407       .  A
C194        C195   1.399       .  A
C194        H203   1.083       .  S
C195        C196   1.403       .  A
C195        H204   1.083       .  S
C196        C202   1.408       .  A
C196        C197   1.414       .  A
C197        C199   1.403       .  A
C197        C198   1.409       .  A
C198        H205   1.084       .  S
C199        C200   1.400       .  A
C199        H206   1.083       .  S
C200        C201   1.407       .  A
C200        H207   1.083       .  S
C201        C202   1.408       .  A
C202        H208   1.084       .  S
C209        C210   1.406       .  A
C209        C214   1.407       .  A
C210        C211   1.395       .  A
C210        H219   1.083       .  S
C211        C212   1.400       .  A
C211        H220   1.083       .  S
C212        C218   1.405       .  A
C212        C213   1.415       .  A
C213        C215   1.403       .  A
C213        C214   1.410       .  A
C214        H221   1.084       .  S
C215        C216   1.401       .  A
C215        H222   1.083       .  S
C216        C217   1.407       .  A
C216        H223   1.083       .  S
C217        C218   1.405       .  A
C218        H224   1.084       .  S
C225        C226   1.404       .  A
C225        C230   1.406       .  A
C226        C227   1.398       .  A
C226        H235   1.083       .  S
C227        C228   1.402       .  A
C227        H236   1.084       .  S
C228        C234   1.405       .  A
C228        C229   1.415       .  A
C229        C231   1.403       .  A
C229        C230   1.407       .  A
C230        H237   1.085       .  S
C231        C232   1.399       .  A
C231        H238   1.084       .  S
C232        C233   1.406       .  A
C232        H239   1.083       .  S
C233        C234   1.405       .  A
C234        H240   1.085       .  S
C241        C242   1.406       .  A
C241        C246   1.407       .  A
C242        C243   1.399       .  A
C242        H251   1.083       .  S
C243        C244   1.402       .  A
C243        H252   1.084       .  S
C244        C250   1.406       .  A
C244        C245   1.415       .  A
C245        C247   1.403       .  A
C245        C246   1.406       .  A
C246        H253   1.084       .  S
C247        C248   1.399       .  A
C247        H254   1.084       .  S
C248        C249   1.404       .  A
C248        H255   1.083       .  S
C249        C250   1.405       .  A
C250        H256   1.084       .  S
C257        C258   1.405       .  A
C257        C262   1.407       .  A
C258        C259   1.402       .  A
C258        H267   1.083       .  S
C259        C260   1.405       .  A
C259        H268   1.083       .  S
C260        C266   1.409       .  A
C260        C261   1.414       .  A
C261        C263   1.402       .  A
C261        C262   1.405       .  A
C262        H269   1.084       .  S
C263        C264   1.397       .  A
C263        H270   1.084       .  S
C264        C265   1.405       .  A
C264        H271   1.083       .  S
C265        C266   1.409       .  A
C266        H272   1.084       .  S
C273        C274   1.405       .  A
C273        C278   1.406       .  A
C274        C275   1.399       .  A
C274        H283   1.083       .  S
C275        C276   1.403       .  A
C275        H284   1.084       .  S
C276        C282   1.406       .  A
C276        C277   1.414       .  A
C277        C279   1.403       .  A
C277        C278   1.405       .  A
C278        H285   1.084       .  S
C279        C280   1.398       .  A
C279        H286   1.084       .  S
C280        C281   1.403       .  A
C280        H287   1.083       .  S
C281        C282   1.406       .  A
C282        H288   1.084       .  S
O289       Cu297   2.032       .  S
O289        C299   1.281       .  A
O290       Cu297   2.019       .  S
O290        C300   1.278       .  A
O291       Cu297   2.009       .  S
O291        C301   1.277       .  A
O292       Cu297   2.015       .  S
O292        C302   1.279       .  A
O293       Cu298   2.022       .  S
O293        C302   1.279       .  A
O294       Cu298   2.032       .  S
O294        C301   1.281       .  A
O295       Cu298   2.009       .  S
O295        C300   1.279       .  A
O296       Cu298   1.999       .  S
O296        C299   1.277       .  A
Cu297      Cu298   2.372       .  S
C299        C561   1.483       .  S
C300        C529   1.479       .  S
C301        C513   1.483       .  S
C302        C553   1.481       .  S
C303        C497   1.478       .  S
C303        N308   1.358       .  A
N304        C305   1.364       .  A
C305        C489   1.479       .  S
C305        N306   1.357       .  A
N306        C307   1.353       .  A
C307        C317   1.461       .  S
C309        C521   1.483       .  S
C309        N310   1.360       .  A
C309        N314   1.364       .  A
C311        C537   1.477       .  S
C311        N312   1.361       .  A
N312        C313   1.361       .  A
C313        C319   1.468       .  S
C315        C328   1.471       .  S
C315        C316   1.400       .  A
C315        C320   1.406   1_554  A
C316        C317   1.402   1_554  A
C316        H321   1.084       .  S
C317        C318   1.399       .  A
C318        C319   1.400       .  A
C318        H322   1.084       .  S
C319        C320   1.407       .  A
C320        H323   1.084       .  S
C324        C457   1.473       .  S
C324        N325   1.353   1_556  A
C324        N329   1.359       .  A
C326        C465   1.470       .  S
C326        N327   1.359       .  A
C328        N329   1.362   1_554  A
O330       Cu338   2.020   1_545  S
O330        C340   1.280       .  A
O331       Cu338   2.023       .  S
O331        C341   1.279       .  A
O332       Cu338   2.018       .  S
O332        C342   1.279       .  A
O333       Cu338   2.024   1_545  S
O333        C343   1.280       .  A
O334       Cu339   2.003       .  S
O334        C343   1.278       .  A
O335       Cu339   2.020   1_565  S
O335        C342   1.280       .  A
O336       Cu339   2.013   1_565  S
O336        C341   1.279       .  A
O337       Cu339   1.998       .  S
O337        C340   1.276       .  A
Cu338      Cu339   2.371   1_565  S
C340        C449   1.476       .  S
C341        C417   1.481       .  S
C342        C441   1.484       .  S
C343        C473   1.484       .  S
O344       Cu352   2.023       .  S
O344        C354   1.280       .  A
O345       Cu352   2.030   1_455  S
O345        C355   1.281       .  A
O346       Cu352   2.021   1_455  S
O346        C356   1.279       .  A
O347       Cu352   2.013       .  S
O347        C357   1.278       .  A
O348       Cu353   2.019   1_655  S
O348        C357   1.280       .  A
O349       Cu353   2.005       .  S
O349        C356   1.278       .  A
O350       Cu353   1.994       .  S
O350        C355   1.276       .  A
O351       Cu353   2.004   1_655  S
O351        C354   1.277       .  A
Cu352      Cu353   2.371   1_655  S
C354        C481   1.478       .  S
C355        C409   1.480       .  S
C356        C393   1.482       .  S
C357        C505   1.484       .  S
C358        C545   1.479       .  S
C358        N363   1.360       .  A
N359        C360   1.356       .  A
C360        C569   1.477       .  S
C360        N361   1.361       .  A
N361        C362   1.362       .  A
C362        C366   1.478       .  S
C364        C381   1.473       .  S
C364        C365   1.405       .  A
C364        C369   1.403   1_554  A
C365        H370   1.084       .  S
C366        C367   1.409       .  A
C367        C368   1.409       .  A
C367        H371   1.084       .  S
C368        C377   1.474       .  S
C369        H372   1.084       .  S
C373        C385   1.478       .  S
C373        N374   1.358       .  A
C373        N378   1.363       .  A
C375        C401   1.477       .  S
C375        N376   1.361       .  A
N376        C377   1.362       .  A
C379        C433   1.481       .  S
C379        N380   1.360       .  A
C379        N384   1.360   1_556  A
N380        C381   1.359   1_556  A
N382        C383   1.362       .  A
C383        C425   1.482       .  S
C385        C386   1.405       .  A
C385        C390   1.404       .  A
C386        C387   1.399       .  A
C386        H395   1.083       .  S
C387        C388   1.403       .  A
C387        H396   1.083       .  S
C388        C394   1.407       .  A
C388        C389   1.415       .  A
C389        C391   1.401       .  A
C389        C390   1.406       .  A
C390        H397   1.084       .  S
C391        C392   1.397       .  A
C391        H398   1.083       .  S
C392        C393   1.406       .  A
C392        H399   1.083       .  S
C393        C394   1.407       .  A
C394        H400   1.084       .  S
C401        C402   1.405       .  A
C401        C406   1.404       .  A
C402        C403   1.398       .  A
C402        H411   1.083       .  S
C403        C404   1.402       .  A
C403        H412   1.084       .  S
C404        C410   1.408       .  A
C404        C405   1.416       .  A
C405        C407   1.400       .  A
C405        C406   1.406       .  A
C406        H413   1.084       .  S
C407        C408   1.396       .  A
C407        H414   1.084       .  S
C408        C409   1.407       .  A
C408        H415   1.083       .  S
C409        C410   1.405       .  A
C410        H416   1.084       .  S
C417        C418   1.405       .  A
C417        C422   1.408       .  A
C418        C419   1.396       .  A
C418        H427   1.083       .  S
C419        C420   1.401       .  A
C419        H428   1.084       .  S
C420        C426   1.405       .  A
C420        C421   1.415       .  A
C421        C423   1.404       .  A
C421        C422   1.410       .  A
C422        H429   1.084       .  S
C423        C424   1.402       .  A
C423        H430   1.084       .  S
C424        C425   1.406       .  A
C424        H431   1.083       .  S
C425        C426   1.405       .  A
C426        H432   1.085       .  S
C433        C434   1.405       .  A
C433        C438   1.407       .  A
C434        C435   1.399       .  A
C434        H443   1.083       .  S
C435        C436   1.403       .  A
C435        H444   1.084       .  S
C436        C442   1.408       .  A
C436        C437   1.414       .  A
C437        C439   1.403       .  A
C437        C438   1.408       .  A
C438        H445   1.084       .  S
C439        C440   1.400       .  A
C439        H446   1.084       .  S
C440        C441   1.406       .  A
C440        H447   1.083       .  S
C441        C442   1.407       .  A
C442        H448   1.084       .  S
C449        C450   1.406       .  A
C449        C454   1.403       .  A
C450        C451   1.398       .  A
C450        H459   1.084       .  S
C451        C452   1.402       .  A
C451        H460   1.083       .  S
C452        C458   1.406       .  A
C452        C453   1.416       .  A
C453        C455   1.401       .  A
C453        C454   1.404       .  A
C454        H461   1.083       .  S
C455        C456   1.395       .  A
C455        H462   1.083       .  S
C456        C457   1.404       .  A
C456        H463   1.084       .  S
C457        C458   1.404       .  A
C458        H464   1.083       .  S
C465        C466   1.402       .  A
C465        C470   1.403       .  A
C466        C467   1.398       .  A
C466        H475   1.083       .  S
C467        C468   1.403       .  A
C467        H476   1.084       .  S
C468        C474   1.407       .  A
C468        C469   1.415       .  A
C469        C471   1.401       .  A
C469        C470   1.405       .  A
C470        H477   1.085       .  S
C471        C472   1.397       .  A
C471        H478   1.084       .  S
C472        C473   1.407       .  A
C472        H479   1.083       .  S
C473        C474   1.407       .  A
C474        H480   1.084       .  S
C481        C482   1.406       .  A
C481        C486   1.404       .  A
C482        C483   1.398       .  A
C482        H491   1.083       .  S
C483        C484   1.401       .  A
C483        H492   1.083       .  S
C484        C490   1.407       .  A
C484        C485   1.416       .  A
C485        C487   1.400       .  A
C485        C486   1.406       .  A
C486        H493   1.084       .  S
C487        C488   1.396       .  A
C487        H494   1.083       .  S
C488        C489   1.407       .  A
C488        H495   1.083       .  S
C489        C490   1.404       .  A
C490        H496   1.084       .  S
C497        C498   1.405       .  A
C497        C502   1.405       .  A
C498        C499   1.398       .  A
C498        H507   1.083       .  S
C499        C500   1.402       .  A
C499        H508   1.083       .  S
C500        C506   1.406       .  A
C500        C501   1.415       .  A
C501        C503   1.402       .  A
C501        C502   1.407       .  A
C502        H509   1.084       .  S
C503        C504   1.399       .  A
C503        H510   1.083       .  S
C504        C505   1.406       .  A
C504        H511   1.083       .  S
C505        C506   1.408       .  A
C506        H512   1.084       .  S
C513        C514   1.405       .  A
C513        C518   1.408       .  A
C514        C515   1.401       .  A
C514        H523   1.083       .  S
C515        C516   1.404       .  A
C515        H524   1.084       .  S
C516        C522   1.409       .  A
C516        C517   1.414       .  A
C517        C519   1.404       .  A
C517        C518   1.408       .  A
C518        H525   1.085       .  S
C519        C520   1.400       .  A
C519        H526   1.084       .  S
C520        C521   1.404       .  A
C520        H527   1.083       .  S
C521        C522   1.408       .  A
C522        H528   1.085       .  S
C529        C530   1.405       .  A
C529        C534   1.409       .  A
C530        C531   1.394       .  A
C530        H539   1.083       .  S
C531        C532   1.400       .  A
C531        H540   1.084       .  S
C532        C538   1.402       .  A
C532        C533   1.415       .  A
C533        C535   1.406       .  A
C533        C534   1.410       .  A
C534        H541   1.084       .  S
C535        C536   1.403       .  A
C535        H542   1.083       .  S
C536        C537   1.405       .  A
C536        H543   1.083       .  S
C537        C538   1.402       .  A
C538        H544   1.085       .  S
C545        C546   1.405       .  A
C545        C550   1.405       .  A
C546        C547   1.401       .  A
C546        H555   1.083       .  S
C547        C548   1.404       .  A
C547        H556   1.083       .  S
C548        C554   1.410       .  A
C548        C549   1.415       .  A
C549        C551   1.401       .  A
C549        C550   1.405       .  A
C550        H557   1.084       .  S
C551        C552   1.397       .  A
C551        H558   1.084       .  S
C552        C553   1.405       .  A
C552        H559   1.083       .  S
C553        C554   1.408       .  A
C554        H560   1.084       .  S
C561        C562   1.407       .  A
C561        C566   1.406       .  A
C562        C563   1.398       .  A
C562        H571   1.083       .  S
C563        C564   1.402       .  A
C563        H572   1.084       .  S
C564        C570   1.407       .  A
C564        C565   1.415       .  A
C565        C567   1.403       .  A
C565        C566   1.407       .  A
C566        H573   1.084       .  S
C567        C568   1.399       .  A
C567        H574   1.084       .  S
C568        C569   1.404       .  A
C568        H575   1.083       .  S
C569        C570   1.404       .  A
C570        H576   1.084       .  S
