geometry optimzed in LAMMPS
_audit_creation_date              2020-12-01 
_audit_creation_method            'lammps2cif' 
_symmetry_space_group_name_H-M    'P1' 
_symmetry_Int_Tables_number       1 
_symmetry_cell_setting            triclinic 
loop_ 
_symmetry_equiv_pos_as_xyz 
  x,y,z 
_cell_length_a                    63.60087197 
_cell_length_b                    63.30198045777839 
_cell_length_c                    63.15427564403472 
_cell_angle_alpha                 89.77977509707623 
_cell_angle_beta                  90.04775080413965 
_cell_angle_gamma                 90.06743770832703 
loop_ 
_atom_site_label 
_atom_site_type_symbol 
_atom_site_fract_x 
_atom_site_fract_y 
_atom_site_fract_z 
_atom_site_charge 
Zn1        Zn  0.02535788  0.61461703  0.81861924     1.49700
Zn2        Zn  0.98077155  0.61536256  0.82934576     1.49400
Zn3        Zn  0.00678003  0.65981259  0.83211722     1.49100
Zn4        Zn  0.99684407  0.64116667  0.78769304     1.49500
O5          O  0.00197828  0.63324036  0.81681774    -1.83200
O6          O  0.01878299  0.58254745  0.81767763    -0.73800
O7          O  0.97102078  0.62941282  0.85588619    -0.73600
O8          O  0.03351178  0.65588577  0.84974024    -0.73200
O9          O  0.98803746  0.58330472  0.83378280    -0.73800
O10         O  0.04087448  0.62171542  0.84476612    -0.73400
O11         O  0.98264260  0.66277197  0.85349219    -0.74000
O12         O  0.99439981  0.67246367  0.78338100    -0.73400
O13         O  0.95701886  0.61590092  0.80908873    -0.74200
O14         O  0.00847247  0.68665708  0.81211292    -0.73600
O15         O  0.96920283  0.62905589  0.77852560    -0.74000
O16         O  0.02223469  0.63391438  0.76991522    -0.73900
O17         O  0.04390532  0.62223294  0.79512932    -0.73700
C18         C  0.00336747  0.57275555  0.82613146     0.78100
C19         C  0.97141369  0.64848382  0.86236550     0.78600
C20         C  0.04389968  0.63917015  0.85425059     0.77500
C21         C  0.00119885  0.68852423  0.79326488     0.77900
C22         C  0.95461909  0.62080235  0.78968505     0.79000
C23         C  0.04052648  0.62877829  0.77642595     0.78100
Zn24       Zn  0.02226573  0.34010148  0.81916032     1.49700
Zn25       Zn  0.97535949  0.34500194  0.81063327     1.49400
Zn26       Zn  0.99651273  0.37819427  0.84204087     1.49100
Zn27       Zn  0.00640359  0.38205508  0.79469908     1.49500
O28         O  0.00029003  0.36163852  0.81660730    -1.83200
O29         O  0.01571014  0.31249385  0.80214045    -0.73800
O30         O  0.95678990  0.34218877  0.83677006    -0.73600
O31         O  0.01862113  0.36820999  0.86237316    -0.73200
O32         O  0.98174934  0.31710460  0.79596925    -0.73800
O33         O  0.02983459  0.33691956  0.85034598    -0.73400
O34         O  0.96904901  0.36974190  0.85499244    -0.74000
O35         O  0.00504775  0.41334373  0.80433924    -0.73400
O36         O  0.95967588  0.36014457  0.78851561    -0.74200
O37         O  0.99776469  0.41115077  0.83849234    -0.73600
O38         O  0.98505327  0.37795600  0.77158673    -0.74000
O39         O  0.03622005  0.37782254  0.78552067    -0.73900
O40         O  0.04842651  0.35208912  0.80646134    -0.73700
C41         C  0.99859449  0.30661650  0.79323362     0.78100
C42         C  0.95582029  0.35482710  0.85244830     0.78600
C43         C  0.02934175  0.35128893  0.86454955     0.77500
C44         C  0.00162083  0.42237035  0.82206137     0.77900
C45         C  0.96631427  0.37076141  0.77277141     0.79000
C46         C  0.05123559  0.36675226  0.79299060     0.78100
Zn47       Zn  0.11262091  0.47336511  0.67740153     1.49700
Zn48       Zn  0.11212881  0.51857667  0.66730762     1.49400
Zn49       Zn  0.13494517  0.50337503  0.71030974     1.49100
Zn50       Zn  0.15768128  0.49526783  0.66671047     1.49500
O51         O  0.12990609  0.49780912  0.68075033    -1.83200
O52         O  0.08029091  0.47899039  0.67607586    -0.73800
O53         O  0.11341778  0.54395896  0.68518515    -0.73600
O54         O  0.12425378  0.47883245  0.72828482    -0.73200
O55         O  0.08047307  0.51172069  0.66403909    -0.73800
O56         O  0.11786025  0.45557771  0.70254894    -0.73400
O57         O  0.12420763  0.53257768  0.71694482    -0.74000
O58         O  0.18374472  0.49713661  0.68789442    -0.73400
O59         O  0.12476705  0.52594387  0.63965470    -0.74200
O60         O  0.16579887  0.50454113  0.71695234    -0.73600
O61         O  0.15884633  0.51785191  0.64295119    -0.74000
O62         O  0.15754516  0.46748287  0.65047393    -0.73900
O63         O  0.12345423  0.45850750  0.65155142    -0.73700
C64         C  0.07029308  0.49529130  0.66967085     0.78100
C65         C  0.11761272  0.54715053  0.70457477     0.78600
C66         C  0.12077818  0.45999276  0.72195643     0.77500
C67         C  0.18329360  0.50155547  0.70770355     0.77900
C68         C  0.14361658  0.52655490  0.63290015     0.79000
C69         C  0.14191966  0.45666292  0.64382417     0.78100
Zn70       Zn  0.88110996  0.50088105  0.70515478     1.49700
Zn71       Zn  0.84285914  0.47615819  0.68406839     1.49400
Zn72       Zn  0.84132953  0.52408683  0.68338822     1.49100
Zn73       Zn  0.87760678  0.50112021  0.65645445     1.49500
O74         O  0.86103868  0.50074090  0.68222009    -1.83200
O75         O  0.87891804  0.47385397  0.72106632    -0.73800
O76         O  0.81552195  0.48168792  0.70063369    -0.73600
O77         O  0.85338459  0.54520712  0.70286102    -0.73200
O78         O  0.85870083  0.45447362  0.69974975    -0.73800
O79         O  0.87516237  0.52617129  0.72317313    -0.73400
O80         O  0.81281952  0.51644378  0.69729769    -0.74000
O81         O  0.86841203  0.52576769  0.63885346    -0.73400
O82         O  0.83980639  0.46318663  0.65501520    -0.74200
O83         O  0.83971404  0.53848029  0.65474869    -0.73600
O84         O  0.86933529  0.47547786  0.64012452    -0.74000
O85         O  0.91011346  0.50178022  0.66046763    -0.73900
O86         O  0.91230359  0.50127824  0.69543506    -0.73700
C87         C  0.87243306  0.45616248  0.71417779     0.78100
C88         C  0.80585101  0.49890409  0.70454221     0.78600
C89         C  0.86525279  0.54317188  0.71889441     0.77500
C90         C  0.85282033  0.53836727  0.63942581     0.77900
C91         C  0.85364758  0.46290106  0.64036342     0.79000
C92         C  0.92123233  0.50135416  0.67731764     0.78100
Zn93       Zn  0.62281922  0.97490246  0.82334469     1.49700
Zn94       Zn  0.64454632  0.00517900  0.78843859     1.49400
Zn95       Zn  0.62321717  0.02114113  0.83118020     1.49100
Zn96       Zn  0.66844566  0.99724948  0.83260791     1.49500
O97         O  0.64043909  0.99950369  0.81861526    -1.83200
O98         O  0.62252062  0.95922247  0.79686518    -0.73800
O99         O  0.63194807  0.03377973  0.78114570    -0.73600
O100        O  0.59167985  0.01449062  0.83376553    -0.73200
O101        O  0.63296840  0.98063099  0.77083774    -0.73800
O102        O  0.59131656  0.97984011  0.83065268    -0.73400
O103        O  0.62356344  0.04639672  0.81297687    -0.74000
O104        O  0.66964658  0.01993138  0.85640854    -0.73400
O105        O  0.67540176  0.00706930  0.78109096    -0.74200
O106        O  0.63573068  0.02898758  0.85888221    -0.73600
O107        O  0.69355293  0.00005937  0.81036081    -0.74000
O108        O  0.66967773  0.96826454  0.84787089    -0.73900
O109        O  0.63709910  0.95568240  0.84359993    -0.73700
C110        C  0.62604786  0.96284495  0.77745238     0.78100
C111        C  0.62546824  0.04863816  0.79311152     0.78600
C112        C  0.58147890  0.99718371  0.83321470     0.77500
C113        C  0.65450046  0.02932287  0.86590977     0.77900
C114        C  0.69293108  0.00433287  0.79044971     0.79000
C115        C  0.65561705  0.95412423  0.85112688     0.78100
Zn116      Zn  0.38917555  0.97631607  0.83936936     1.49700
Zn117      Zn  0.39109719  0.02062657  0.82761384     1.49400
Zn118      Zn  0.36768581  0.99029458  0.79509933     1.49100
Zn119      Zn  0.34507171  0.00245170  0.83722149     1.49500
O120        O  0.37268656  0.99710401  0.82444561    -1.83200
O121        O  0.42144206  0.98172532  0.84157880    -0.73800
O122        O  0.38673846  0.03736702  0.80226875    -0.73600
O123        O  0.37862646  0.96083416  0.79036730    -0.73200
O124        O  0.42287037  0.01453559  0.82993297    -0.73800
O125        O  0.38707029  0.94999725  0.82306696    -0.73400
O126        O  0.37882576  0.01437811  0.77674478    -0.74000
O127        O  0.31994908  0.00216232  0.81485890    -0.73400
O128        O  0.38113459  0.03786288  0.85172979    -0.74200
O129        O  0.33685381  0.98917652  0.78715948    -0.73600
O130        O  0.34672303  0.03072678  0.85298508    -0.74000
O131        O  0.34165725  0.97987270  0.86046362    -0.73900
O132        O  0.37519429  0.97110358  0.86716895    -0.73700
C133        C  0.43224902  0.99786524  0.83615818     0.78100
C134        C  0.38305762  0.03308290  0.78301240     0.78600
C135        C  0.38417269  0.94646709  0.80349903     0.77500
C136        C  0.31986677  0.99538863  0.79571597     0.77900
C137        C  0.36274029  0.04154085  0.85872362     0.79000
C138        C  0.35569011  0.97086851  0.87192011     0.78100
Zn139      Zn  0.49302436  0.13887843  0.70544395     1.49700
Zn140      Zn  0.52351769  0.11576121  0.67275170     1.49400
Zn141      Zn  0.47820426  0.11480972  0.66315056     1.49100
Zn142      Zn  0.50081884  0.16049018  0.66087959     1.49500
O143        O  0.49886228  0.13304888  0.67584286    -1.83200
O144        O  0.51768291  0.12904914  0.72367988    -0.73800
O145        O  0.51903006  0.08320219  0.66973482    -0.73600
O146        O  0.45280388  0.11618227  0.68076577    -0.73200
O147        O  0.54033736  0.12006852  0.69833387    -0.73800
O148        O  0.46466013  0.12652729  0.71241271    -0.73400
O149        O  0.48522867  0.08286898  0.66206554    -0.74000
O150        O  0.47826872  0.16109483  0.63725531    -0.73400
O151        O  0.54044713  0.12790788  0.64940304    -0.74200
O152        O  0.47089304  0.12662581  0.63484416    -0.73600
O153        O  0.52867991  0.16094065  0.64499210    -0.74000
O154        O  0.49920420  0.18644116  0.68186332    -0.73900
O155        O  0.49077935  0.17006383  0.71182508    -0.73700
C156        C  0.53615984  0.12411179  0.71752770     0.78100
C157        C  0.50225909  0.07287081  0.66565133     0.78600
C158        C  0.45009782  0.11955007  0.70038046     0.77500
C159        C  0.46989669  0.14543296  0.62759422     0.77900
C160        C  0.54180720  0.14621290  0.64106603     0.79000
C161        C  0.49453386  0.18699578  0.70162639     0.78100
Zn162      Zn  0.51962642  0.87977948  0.66565436     1.49700
Zn163      Zn  0.49368819  0.83518778  0.66342305     1.49400
Zn164      Zn  0.50469083  0.85610945  0.70760579     1.49100
Zn165      Zn  0.47389646  0.88064634  0.67554233     1.49500
O166        O  0.49803394  0.86239723  0.67820464    -1.83200
O167        O  0.52569051  0.86764303  0.63716644    -0.73800
O168        O  0.49443187  0.80895499  0.68456109    -0.73600
O169        O  0.53360717  0.86714822  0.71461238    -0.73200
O170        O  0.51569017  0.83372519  0.63945471    -0.73800
O171        O  0.54550276  0.87744699  0.68298861    -0.73400
O172        O  0.50530859  0.82491273  0.71383467    -0.74000
O173        O  0.45815906  0.87702533  0.70183562    -0.73400
O174        O  0.46538993  0.83634804  0.64782960    -0.74200
O175        O  0.48132003  0.86688997  0.72638376    -0.73600
O176        O  0.45507599  0.86964990  0.65288958    -0.74000
O177        O  0.47975751  0.91280054  0.67206812    -0.73900
O178        O  0.51368102  0.91207835  0.66489621    -0.73700
C179        C  0.52506323  0.84889980  0.62980896     0.78100
C180        C  0.50004041  0.80819679  0.70409707     0.78600
C181        C  0.54828033  0.87394528  0.70260420     0.77500
C182        C  0.46286917  0.87253375  0.72085801     0.77900
C183        C  0.45267306  0.85159347  0.64436202     0.79000
C184        C  0.49690072  0.92258660  0.66819122     0.78100
Zn185      Zn  0.34382606  0.81463963  0.97216149     1.49700
Zn186      Zn  0.34908769  0.80962606  0.01950292     1.49400
Zn187      Zn  0.38507348  0.78966406  0.98899503     1.49100
Zn188      Zn  0.38231347  0.83851716  0.99597227     1.49500
O189        O  0.36556468  0.81293007  0.99387523    -1.83200
O190        O  0.31583751  0.80034737  0.98056270    -0.73800
O191        O  0.36452409  0.78959829  0.03712260    -0.73600
O192        O  0.37567487  0.77498220  0.96185664    -0.73200
O193        O  0.32020235  0.79601437  0.01504958    -0.73800
O194        O  0.35327393  0.79813004  0.94735130    -0.73400
O195        O  0.38401485  0.77034482  0.01495538    -0.74000
O196        O  0.41462396  0.83409660  0.99221396    -0.73400
O197        O  0.34794644  0.83660595  0.03645047    -0.74200
O198        O  0.41650702  0.79973656  0.98574903    -0.73600
O199        O  0.37677138  0.85238466  0.02403084    -0.74000
O200        O  0.37044518  0.85927334  0.97493018    -0.73900
O201        O  0.34058213  0.84498730  0.96281951    -0.73700
C202        C  0.30939212  0.79316085  0.99831437     0.78100
C203        C  0.37663059  0.77418394  0.03336220     0.78600
C204        C  0.36437078  0.78149658  0.94639458     0.77500
C205        C  0.42559345  0.81767301  0.98811718     0.77900
C206        C  0.36172420  0.85121398  0.03731661     0.79000
C207        C  0.35341459  0.86044105  0.96427858     0.78100
Zn208      Zn  0.61984834  0.81772034  0.97225931     1.49700
Zn209      Zn  0.66095320  0.83393171  0.99677134     1.49400
Zn210      Zn  0.61413164  0.83751163  0.01521078     1.49100
Zn211      Zn  0.63727789  0.79333218  0.01140904     1.49500
O212        O  0.63341812  0.82082790  0.99906443    -1.83200
O213        O  0.63286621  0.83873263  0.95162610    -0.73800
O214        O  0.66197644  0.85768227  0.01885436    -0.73600
O215        O  0.58352759  0.83841273  0.00371849    -0.73200
O216        O  0.66228839  0.84854265  0.96830970    -0.73800
O217        O  0.58681476  0.81958176  0.97445018    -0.73400
O218        O  0.62764074  0.86555815  0.01963966    -0.74000
O219        O  0.62820471  0.79376418  0.04171786    -0.73400
O220        O  0.68523584  0.81157131  0.99880229    -0.74200
O221        O  0.61193187  0.82481606  0.04401163    -0.73600
O222        O  0.66733996  0.78356301  0.01010377    -0.74000
O223        O  0.61994193  0.77323195  0.99416636    -0.73900
O224        O  0.62693441  0.78864652  0.96325651    -0.73700
C225        C  0.64995770  0.84936753  0.95238216     0.78100
C226        C  0.64678654  0.86992198  0.02397869     0.78600
C227        C  0.57511836  0.82891755  0.98801148     0.77500
C228        C  0.61805192  0.80750993  0.05220579     0.77900
C229        C  0.68458291  0.79212494  0.00449744     0.79000
C230        C  0.61983063  0.77321948  0.97400220     0.78100
Zn231      Zn  0.50449523  0.65831324  0.11923160     1.49700
Zn232      Zn  0.52624587  0.68818219  0.15394283     1.49400
Zn233      Zn  0.49658439  0.70690026  0.11694095     1.49100
Zn234      Zn  0.47877841  0.68053387  0.15611132     1.49500
O235        O  0.50171147  0.68352992  0.13615251    -1.83200
O236        O  0.53281597  0.64594056  0.12535881    -0.73800
O237        O  0.54259797  0.71157061  0.14100600    -0.73600
O238        O  0.49647916  0.69787860  0.08528087    -0.73200
O239        O  0.54519770  0.66226617  0.15408437    -0.73800
O240        O  0.50091825  0.66317445  0.08688953    -0.73400
O241        O  0.51908603  0.72902994  0.12133430    -0.74000
O242        O  0.45340846  0.69325616  0.14324645    -0.73400
O243        O  0.51865613  0.69981619  0.18334381    -0.74200
O244        O  0.46767902  0.71821454  0.12271813    -0.73600
O245        O  0.48392744  0.69671930  0.18351399    -0.74000
O246        O  0.47151653  0.64990344  0.16027174    -0.73900
O247        O  0.48354274  0.63680255  0.12981603    -0.73700
C248        C  0.54643474  0.64782215  0.14007558     0.78100
C249        C  0.53718485  0.72746523  0.12991972     0.78600
C250        C  0.49798528  0.68000886  0.07602396     0.77500
C251        C  0.45182863  0.70929860  0.13128350     0.77900
C252        C  0.50087006  0.70343663  0.19194263     0.79000
C253        C  0.47276351  0.63503351  0.14677070     0.78100
Zn254      Zn  0.48296583  0.70335780  0.88470229     1.49700
Zn255      Zn  0.51630513  0.68601121  0.85084709     1.49400
Zn256      Zn  0.49185007  0.65531663  0.88250082     1.49100
Zn257      Zn  0.46938742  0.67925614  0.84246364     1.49500
O258        O  0.48997334  0.68085678  0.86532374    -1.83200
O259        O  0.50558244  0.72485655  0.88328642    -0.73800
O260        O  0.53339531  0.65862319  0.84914070    -0.73600
O261        O  0.49024683  0.66018463  0.91539728    -0.73200
O262        O  0.53176921  0.70586099  0.86945621    -0.73800
O263        O  0.48315378  0.69439002  0.91610619    -0.73400
O264        O  0.51906454  0.64030594  0.87572870    -0.74000
O265        O  0.46026098  0.64882922  0.83951280    -0.73400
O266        O  0.51225129  0.70124043  0.82234206    -0.74200
O267        O  0.46901427  0.63610997  0.87155252    -0.73600
O268        O  0.47882498  0.69464149  0.81487486    -0.74000
O269        O  0.44340331  0.69442067  0.85133071    -0.73900
O270        O  0.45447496  0.71525943  0.87748345    -0.73700
C271        C  0.52505832  0.72097669  0.88081390     0.78100
C272        C  0.53313231  0.64257722  0.86152118     0.78600
C273        C  0.48680234  0.67709896  0.92588887     0.77500
C274        C  0.45934486  0.63454311  0.85385920     0.77900
C275        C  0.49632198  0.70345737  0.81020293     0.79000
C276        C  0.44025875  0.70894986  0.86474008     0.78100
Zn277      Zn  0.79608176  0.61429769  0.97910793     1.49700
Zn278      Zn  0.84246040  0.62142347  0.99037314     1.49400
Zn279      Zn  0.81714752  0.65898202  0.96630364     1.49100
Zn280      Zn  0.80813726  0.64943625  0.01356323     1.49500
O281        O  0.81598254  0.63601068  0.98718389    -1.83200
O282        O  0.80851924  0.58469120  0.97630254    -0.73800
O283        O  0.86194457  0.63357839  0.96832862    -0.73600
O284        O  0.80393051  0.64841691  0.93956606    -0.73200
O285        O  0.84062267  0.58837787  0.98922477    -0.73800
O286        O  0.78429396  0.62123246  0.95063626    -0.73400
O287        O  0.84766330  0.66427199  0.95798572    -0.74000
O288        O  0.79170468  0.67637715  0.00857841    -0.73400
O289        O  0.85510222  0.63009754  0.01794964    -0.74200
O290        O  0.79993341  0.68538845  0.97558269    -0.73600
O291        O  0.83371762  0.65375254  0.03262857    -0.74000
O292        O  0.78895488  0.62974335  0.02835768    -0.73900
O293        O  0.77522841  0.61006957  0.00246231    -0.73700
C294        C  0.82577200  0.57655551  0.98241461     0.78100
C295        C  0.86287441  0.65105900  0.95817439     0.78600
C296        C  0.79078632  0.63369551  0.93614854     0.77500
C297        C  0.78997240  0.68888473  0.99282876     0.77900
C298        C  0.85093416  0.64340558  0.03241159     0.79000
C299        C  0.77664097  0.61534124  0.02186870     0.78100
Zn300      Zn  0.81755828  0.38350641  0.96918975     1.49700
Zn301      Zn  0.82160062  0.38652594  0.01586704     1.49400
Zn302      Zn  0.78223695  0.36259487  0.99575413     1.49100
Zn303      Zn  0.82677305  0.34009684  0.99399977     1.49500
O304        O  0.81202101  0.36761368  0.99418343    -1.83200
O305        O  0.81756602  0.41596184  0.97268966    -0.73800
O306        O  0.80004246  0.38529657  0.03876263    -0.73600
O307        O  0.76789060  0.37109093  0.96882019    -0.73200
O308        O  0.82514384  0.41801445  0.00678131    -0.73800
O309        O  0.79606452  0.37542500  0.94836855    -0.73400
O310        O  0.77064148  0.37432478  0.02280041    -0.74000
O311        O  0.80569604  0.31403372  0.99497603    -0.73400
O312        O  0.84837952  0.37452659  0.02734199    -0.74200
O313        O  0.77576142  0.33189450  0.99619250    -0.73600
O314        O  0.84791096  0.34020339  0.01884039    -0.74000
O315        O  0.84536107  0.33947976  0.96717896    -0.73900
O316        O  0.84461631  0.37354651  0.95768722    -0.73700
C317        C  0.82186468  0.42705803  0.98896367     0.78100
C318        C  0.78047080  0.38096893  0.03906944     0.78600
C319        C  0.77648938  0.37225962  0.95064431     0.77500
C320        C  0.78552605  0.31444913  0.99537862     0.77900
C321        C  0.85597013  0.35592458  0.02868515     0.79000
C322        C  0.85243408  0.35508917  0.95637013     0.78100
Zn323      Zn  0.65685204  0.49938120  0.12313169     1.49700
Zn324      Zn  0.70404930  0.49034695  0.11880645     1.49400
Zn325      Zn  0.68949614  0.52230052  0.15467930     1.49100
Zn326      Zn  0.68080179  0.47409815  0.16130307     1.49500
O327        O  0.68261466  0.49637837  0.13952518    -1.83200
O328        O  0.65979953  0.49652026  0.09025593    -0.73800
O329        O  0.72737814  0.51095466  0.12151859    -0.73600
O330        O  0.66412329  0.54173634  0.15583270    -0.73200
O331        O  0.69426621  0.49292111  0.08776161    -0.73800
O332        O  0.64497947  0.52801311  0.12958778    -0.73400
O333        O  0.71152663  0.53758433  0.13805083    -0.74000
O334        O  0.69624307  0.48238641  0.18926484    -0.73400
O335        O  0.71415215  0.46095682  0.12328767    -0.74200
O336        O  0.70271397  0.51641747  0.18358164    -0.73600
O337        O  0.69573753  0.44830354  0.15061204    -0.74000
O338        O  0.65016508  0.46468149  0.16415446    -0.73900
O339        O  0.63629905  0.47802646  0.13439882    -0.73700
C340        C  0.67633679  0.49486547  0.07890270     0.78100
C341        C  0.72617954  0.53036401  0.12645374     0.78600
C342        C  0.64847847  0.54244703  0.14317146     0.77500
C343        C  0.70471097  0.49982653  0.19495448     0.77900
C344        C  0.70882516  0.44594519  0.13562210     0.79000
C345        C  0.63507740  0.46626026  0.15081508     0.78100
Zn346      Zn  0.67653492  0.52452584  0.88673330     1.49700
Zn347      Zn  0.70851592  0.49592512  0.86146291     1.49400
Zn348      Zn  0.66617645  0.47983149  0.88544382     1.49100
Zn349      Zn  0.66447979  0.50515351  0.84089519     1.49500
O350        O  0.67921932  0.50113575  0.86801625    -1.83200
O351        O  0.70016297  0.54333020  0.87960628    -0.73800
O352        O  0.71605885  0.46675107  0.87168195    -0.73600
O353        O  0.66309266  0.48574653  0.91777719    -0.73200
O354        O  0.72599215  0.52112414  0.87082646    -0.73800
O355        O  0.67764397  0.51736257  0.91896412    -0.73400
O356        O  0.68471056  0.45524147  0.88288748    -0.74000
O357        O  0.64332996  0.48027558  0.83806162    -0.73400
O358        O  0.71441265  0.49468850  0.83017739    -0.74200
O359        O  0.63920173  0.47104253  0.87204687    -0.73600
O360        O  0.68540909  0.50613367  0.81442422    -0.74000
O361        O  0.64635178  0.53202769  0.84425820    -0.73900
O362        O  0.64973021  0.53924114  0.87881836    -0.73700
C363        C  0.71917361  0.53972179  0.87460409     0.78100
C364        C  0.70378075  0.45201893  0.87790658     0.78600
C365        C  0.67023412  0.50119965  0.92855193     0.77500
C366        C  0.63372275  0.46997624  0.85266571     0.77900
C367        C  0.70466859  0.50007843  0.81345600     0.79000
C368        C  0.64068688  0.54197211  0.86096020     0.78100
Zn369      Zn  0.00585799  0.84346283  0.61938970     1.49700
Zn370      Zn  0.02967550  0.81821898  0.65702299     1.49400
Zn371      Zn  0.98235271  0.81784285  0.65568001     1.49100
Zn372      Zn  0.00595594  0.79406932  0.61872560     1.49500
O373        O  0.00631053  0.81841950  0.63711838    -1.83200
O374        O  0.03125845  0.86115040  0.62719451    -0.73800
O375        O  0.02270092  0.80555466  0.68656139    -0.73600
O376        O  0.97044296  0.84700935  0.65934488    -0.73200
O377        O  0.04369703  0.84685255  0.65715405    -0.73800
O378        O  0.98084063  0.86071913  0.62840832    -0.73400
O379        O  0.98824187  0.80202947  0.68319064    -0.74000
O380        O  0.97947091  0.77747627  0.62430655    -0.73400
O381        O  0.05070102  0.79830749  0.64579365    -0.74200
O382        O  0.96027225  0.80128272  0.64163140    -0.73600
O383        O  0.03186373  0.77682345  0.62508705    -0.74000
O384        O  0.00531031  0.80222428  0.58667755    -0.73900
O385        O  0.00454434  0.83725575  0.58676297    -0.73700
C386        C  0.04376294  0.86137168  0.64305922     0.78100
C387        C  0.00516935  0.79840415  0.69335387     0.78600
C388        C  0.96961057  0.86135533  0.64513591     0.77500
C389        C  0.96193035  0.78428026  0.63121773     0.77900
C390        C  0.04879368  0.78167703  0.63477834     0.79000
C391        C  0.00440744  0.81978606  0.57657840     0.78100
Zn392      Zn  0.98567251  0.79186883  0.38583450     1.49700
Zn393      Zn  0.97193794  0.81593804  0.34280459     1.49400
Zn394      Zn  0.99517298  0.83924654  0.38165238     1.49100
Zn395      Zn  0.01890972  0.80633468  0.34994868     1.49500
O396        O  0.99303565  0.81334114  0.36517809    -1.83200
O397        O  0.95544923  0.78390886  0.38115763    -0.73800
O398        O  0.96416123  0.84673451  0.33887234    -0.73600
O399        O  0.99349964  0.83567975  0.41470697    -0.73200
O400        O  0.94544068  0.80262873  0.35284514    -0.73800
O401        O  0.98878573  0.80116323  0.41716900    -0.73400
O402        O  0.97401997  0.86035761  0.36998615    -0.74000
O403        O  0.03873682  0.83177523  0.35033475    -0.73400
O404        O  0.97992225  0.80025864  0.31541347    -0.74200
O405        O  0.02321901  0.85149853  0.37505098    -0.73600
O406        O  0.01387012  0.79397083  0.32027150    -0.74000
O407        O  0.03256937  0.78314537  0.36619740    -0.73900
O408        O  0.00561659  0.76775775  0.38296090    -0.73700
C409        C  0.94143690  0.79027380  0.36817213     0.78100
C410        C  0.96425624  0.86176983  0.35232854     0.78600
C411        C  0.99165014  0.81899969  0.42608327     0.77500
C412        C  0.03834765  0.84797584  0.36234881     0.77900
C413        C  0.99718124  0.79204385  0.30921700     0.79000
C414        C  0.02498277  0.76860861  0.37789215     0.78100
Zn415      Zn  0.11571973  0.70500222  0.51496247     1.49700
Zn416      Zn  0.15726855  0.67934865  0.52934418     1.49400
Zn417      Zn  0.11760924  0.65776407  0.50468958     1.49100
Zn418      Zn  0.15042420  0.68873804  0.48252646     1.49500
O419        O  0.13504405  0.68265122  0.50818117    -1.83200
O420        O  0.12182200  0.71439593  0.54456578    -0.73800
O421        O  0.16020194  0.64796830  0.53584628    -0.73600
O422        O  0.08494063  0.66235419  0.50692592    -0.73200
O423        O  0.14691103  0.69243420  0.55610301    -0.73800
O424        O  0.08421791  0.69662579  0.51341650    -0.73400
O425        O  0.12846067  0.63634726  0.52558602    -0.74000
O426        O  0.15249507  0.66252599  0.46435021    -0.73400
O427        O  0.18502493  0.69554273  0.52169186    -0.74200
O428        O  0.12408673  0.64547694  0.47621361    -0.73600
O429        O  0.17851076  0.70288349  0.48798650    -0.74000
O430        O  0.13325276  0.70953114  0.46678030    -0.73900
O431        O  0.11885431  0.72774549  0.49327960    -0.73700
C432        C  0.13336069  0.70681547  0.55925439     0.78100
C433        C  0.14596592  0.63366479  0.53517050     0.78600
C434        C  0.07447057  0.67931373  0.51002047     0.77500
C435        C  0.13900812  0.64766842  0.46290774     0.77900
C436        C  0.19013573  0.70465686  0.50431108     0.79000
C437        C  0.12203653  0.72463595  0.47361190     0.78100
Zn438      Zn  0.84435193  0.68572441  0.47530392     1.49700
Zn439      Zn  0.84705298  0.68668477  0.52311049     1.49400
Zn440      Zn  0.88135536  0.65947471  0.49815528     1.49100
Zn441      Zn  0.88440651  0.70868893  0.49768697     1.49500
O442        O  0.86478050  0.68518149  0.49831378    -1.83200
O443        O  0.81607131  0.69987286  0.48337518    -0.73800
O444        O  0.84376221  0.65778397  0.53615801    -0.73600
O445        O  0.87211020  0.64193790  0.47320738    -0.73200
O446        O  0.81952213  0.70295785  0.51809835    -0.73800
O447        O  0.84211973  0.65649380  0.46179484    -0.73400
O448        O  0.87250043  0.64212788  0.52329750    -0.74000
O449        O  0.91590463  0.69914053  0.49714700    -0.73400
O450        O  0.86254718  0.70300305  0.54427390    -0.74200
O451        O  0.91393842  0.66418761  0.49871134    -0.73600
O452        O  0.88155948  0.72536263  0.52470264    -0.74000
O453        O  0.87700226  0.72637975  0.47205176    -0.73900
O454        O  0.85527793  0.70549860  0.45362881    -0.73700
C455        C  0.80950175  0.70702653  0.50106595     0.78100
C456        C  0.85674894  0.64243949  0.53578576     0.78600
C457        C  0.85565383  0.64155332  0.46161255     0.77500
C458        C  0.92497918  0.68112188  0.49831347     0.77900
C459        C  0.87460293  0.71884652  0.54247470     0.79000
C460        C  0.86629040  0.72214631  0.45546742     0.78100
Zn461      Zn  0.79771382  0.00870736  0.63658744     1.49700
Zn462      Zn  0.84181424  0.02254730  0.61525324     1.49400
Zn463      Zn  0.83892416  0.99701614  0.66034231     1.49100
Zn464      Zn  0.82877372  0.97836195  0.61421121     1.49500
O465        O  0.82656076  0.00215987  0.63220465    -1.83200
O466        O  0.79274511  0.03731559  0.62418519    -0.73800
O467        O  0.86911243  0.02784693  0.63034316    -0.73600
O468        O  0.81683646  0.99800757  0.68571854    -0.73200
O469        O  0.82491033  0.04891053  0.61555133    -0.73800
O470        O  0.78997612  0.01057436  0.66729625    -0.73400
O471        O  0.86247541  0.01882167  0.66408005    -0.74000
O472        O  0.85450316  0.96320447  0.62365305    -0.73400
O473        O  0.84499662  0.01593391  0.58283655    -0.74200
O474        O  0.85499645  0.96916071  0.65860613    -0.73600
O475        O  0.82882789  0.98511770  0.58202494    -0.74000
O476        O  0.80433071  0.96044137  0.62024167    -0.73900
O477        O  0.77953848  0.98460328  0.62615737    -0.73700
C478        C  0.80526813  0.05183106  0.61791254     0.78100
C479        C  0.87413545  0.02740366  0.64994405     0.78600
C480        C  0.79790890  0.00498257  0.68492979     0.77500
C481        C  0.86198862  0.95984681  0.64211672     0.77900
C482        C  0.83693679  0.00078640  0.57221856     0.79000
C483        C  0.78525796  0.96551016  0.62321506     0.78100
Zn484      Zn  0.81600030  0.02546207  0.34115681     1.49700
Zn485      Zn  0.79780250  0.00011505  0.38231553     1.49400
Zn486      Zn  0.81916060  0.97701162  0.34265944     1.49100
Zn487      Zn  0.84581259  0.00331679  0.37667196     1.49500
O488        O  0.81966254  0.00172762  0.36089633    -1.83200
O489        O  0.79431328  0.04399054  0.35390422    -0.73800
O490        O  0.78548456  0.97113929  0.38196091    -0.73600
O491        O  0.80123765  0.98206172  0.31569598    -0.73200
O492        O  0.77669535  0.02329609  0.37660430    -0.73800
O493        O  0.80261432  0.01692846  0.31221934    -0.73400
O494        O  0.80592782  0.95368609  0.35924960    -0.74000
O495        O  0.86444210  0.97963297  0.36667378    -0.73400
O496        O  0.80861858  0.00242478  0.41324515    -0.74200
O497        O  0.84912001  0.96673538  0.33758192    -0.73600
O498        O  0.84321025  0.00350213  0.40981572    -0.74000
O499        O  0.86031472  0.02956945  0.36723345    -0.73900
O500        O  0.84314392  0.04301603  0.33942608    -0.73700
C501        C  0.77894434  0.04055244  0.36631708     0.78100
C502        C  0.79251251  0.95405639  0.37411836     0.78600
C503        C  0.79626137  0.99891233  0.30564606     0.77500
C504        C  0.86465812  0.96768948  0.35041805     0.77900
C505        C  0.82689095  0.00305739  0.42163977     0.79000
C506        C  0.85867027  0.04308460  0.35231932     0.78100
Zn507      Zn  0.66624001  0.16394167  0.49964839     1.49700
Zn508      Zn  0.67870786  0.11875208  0.52165280     1.49400
Zn509      Zn  0.66641531  0.11851215  0.47659401     1.49100
Zn510      Zn  0.70988539  0.14190713  0.48934745     1.49500
O511        O  0.68061250  0.13629335  0.49680878    -1.83200
O512        O  0.65047317  0.16374619  0.52786434    -0.73800
O513        O  0.67278023  0.08681756  0.51767216    -0.73600
O514        O  0.63885881  0.13153464  0.46929355    -0.73200
O515        O  0.65756016  0.13144988  0.54030662    -0.73800
O516        O  0.64312648  0.16583264  0.47652420    -0.73400
O517        O  0.66358001  0.08674104  0.48404160    -0.74000
O518        O  0.71509753  0.13080793  0.45992625    -0.73400
O519        O  0.70561139  0.12083817  0.53632144    -0.74200
O520        O  0.68331371  0.11895882  0.45065851    -0.73600
O521        O  0.72949312  0.13038221  0.51228700    -0.74000
O522        O  0.71651565  0.17308561  0.48832158    -0.73900
O523        O  0.68754146  0.18957826  0.49873526    -0.73700
C524        C  0.64814496  0.14911249  0.54164694     0.78100
C525        C  0.66714326  0.07670230  0.50121431     0.78600
C526        C  0.63279168  0.15068144  0.46801843     0.77500
C527        C  0.70238054  0.12307219  0.44636870     0.77900
C528        C  0.72448478  0.12445530  0.53096364     0.79000
C529        C  0.70695620  0.18999174  0.49324348     0.78100
Zn530      Zn  0.67637728  0.88568687  0.48244114     1.49700
Zn531      Zn  0.66653206  0.88390778  0.52818477     1.49400
Zn532      Zn  0.66516412  0.83976144  0.50143120     1.49100
Zn533      Zn  0.70909372  0.86211180  0.51187590     1.49500
O534        O  0.67947762  0.86720363  0.50628169    -1.83200
O535        O  0.67263701  0.91738010  0.48862300    -0.73800
O536        O  0.63890975  0.87050135  0.53462225    -0.73600
O537        O  0.64923707  0.84133012  0.47290520    -0.73200
O538        O  0.66380433  0.91617379  0.52235167    -0.73800
O539        O  0.65265239  0.87559090  0.46527317    -0.73400
O540        O  0.64114850  0.83700180  0.52358507    -0.74000
O541        O  0.71642634  0.83107508  0.51099423    -0.73400
O542        O  0.68441252  0.88210022  0.55365794    -0.74200
O543        O  0.68704288  0.81440555  0.50173509    -0.73600
O544        O  0.71577658  0.87199035  0.54145418    -0.74000
O545        O  0.72690554  0.87542563  0.48854977    -0.73900
O546        O  0.70168617  0.88261610  0.46507384    -0.73700
C547        C  0.66744455  0.92686732  0.50557604     0.78100
C548        C  0.63144479  0.85183104  0.53330173     0.78600
C549        C  0.64443135  0.85760903  0.46185760     0.77500
C550        C  0.70676103  0.81413709  0.50624042     0.77900
C551        C  0.70387228  0.87850850  0.55632449     0.79000
C552        C  0.72092724  0.88017289  0.46982728     0.78100
Zn553      Zn  0.61518018  0.97611332  0.16231050     1.49700
Zn554      Zn  0.63992572  0.98401349  0.20662908     1.49400
Zn555      Zn  0.66041560  0.99971763  0.16410184     1.49100
Zn556      Zn  0.61609613  0.01918620  0.17979259     1.49500
O557        O  0.63340318  0.99449956  0.17841280    -1.83200
O558        O  0.61357884  0.94905663  0.17792473    -0.73800
O559        O  0.67125331  0.98312106  0.21279748    -0.73600
O560        O  0.66334916  0.97758620  0.14022757    -0.73200
O561        O  0.62827379  0.95438993  0.20960370    -0.73800
O562        O  0.62933395  0.97003749  0.13494821    -0.73400
O563        O  0.68613036  0.99963734  0.18559362    -0.74000
O564        O  0.62526658  0.03891126  0.15647716    -0.73400
O565        O  0.62907325  0.00505352  0.22834615    -0.74200
O566        O  0.65776450  0.02801829  0.14858793    -0.73600
O567        O  0.62277132  0.03258229  0.20704957    -0.74000
O568        O  0.58373959  0.01329967  0.17892673    -0.73900
O569        O  0.58379955  0.98487100  0.15883583    -0.73700
C570        C  0.61859860  0.94269896  0.19633673     0.78100
C571        C  0.68741396  0.99131084  0.20412641     0.78600
C572        C  0.64854628  0.96927450  0.12926071     0.77500
C573        C  0.64244626  0.04089671  0.14621725     0.77900
C574        C  0.62578891  0.02474784  0.22534979     0.79000
C575        C  0.57364619  0.99919178  0.16865400     0.78100
Zn576      Zn  0.34361083  0.01907763  0.18167582     1.49700
Zn577      Zn  0.34579916  0.97093202  0.18613045     1.49400
Zn578      Zn  0.37983915  0.99388739  0.15579768     1.49100
Zn579      Zn  0.38456445  0.99891366  0.20379123     1.49500
O580        O  0.36361984  0.99559350  0.18183832    -1.83200
O581        O  0.31616288  0.01277971  0.19856210    -0.73800
O582        O  0.34495490  0.95288566  0.15929784    -0.73600
O583        O  0.36906448  0.01678890  0.13645571    -0.73200
O584        O  0.31669635  0.97778135  0.19900466    -0.73800
O585        O  0.33910409  0.02810288  0.15118481    -0.73400
O586        O  0.37180427  0.96706870  0.14142112    -0.74000
O587        O  0.41532429  0.99523383  0.19399248    -0.73400
O588        O  0.35920162  0.95417288  0.20891752    -0.74200
O589        O  0.41275064  0.99466777  0.15908531    -0.73600
O590        O  0.37859525  0.97761320  0.22683029    -0.74000
O591        O  0.38411129  0.02907286  0.21280567    -0.73900
O592        O  0.35786040  0.04405844  0.19470434    -0.73700
C593        C  0.30792960  0.99517852  0.20414754     0.78100
C594        C  0.35755594  0.95307517  0.14352649     0.78600
C595        C  0.35215408  0.02765680  0.13580204     0.77500
C596        C  0.42410118  0.99477780  0.17582920     0.77900
C597        C  0.37003315  0.95945496  0.22500103     0.79000
C598        C  0.37398719  0.04525943  0.20652052     0.78100
Zn599      Zn  0.47751611  0.15166584  0.31117861     1.49700
Zn600      Zn  0.50245061  0.11115733  0.29509213     1.49400
Zn601      Zn  0.52595466  0.15095481  0.31561542     1.49100
Zn602      Zn  0.49908519  0.11734974  0.34290721     1.49500
O603        O  0.50108498  0.13282202  0.31634804    -1.83200
O604        O  0.46012098  0.13861911  0.28821180    -0.73800
O605        O  0.53258888  0.10770284  0.28754664    -0.73600
O606        O  0.52129609  0.17804266  0.29796037    -0.73200
O607        O  0.48302743  0.11829945  0.27090052    -0.73800
O608        O  0.48647248  0.18040815  0.29850522    -0.73400
O609        O  0.54970545  0.13424063  0.30316531    -0.74000
O610        O  0.52187380  0.12870476  0.36250775    -0.73400
O611        O  0.49466508  0.08154804  0.30557007    -0.74200
O612        O  0.53508295  0.15697598  0.34578059    -0.73600
O613        O  0.49924241  0.08414990  0.34020000    -0.74000
O614        O  0.47165183  0.12583262  0.35594305    -0.73900
O615        O  0.45941685  0.15365262  0.33781337    -0.73700
C616        C  0.46514040  0.12729482  0.27238270     0.78100
C617        C  0.54950835  0.11699422  0.29291011     0.78600
C618        C  0.50437366  0.18769442  0.29288275     0.77500
C619        C  0.53357087  0.14516620  0.36216797     0.77900
C620        C  0.49595526  0.07282857  0.32374118     0.79000
C621        C  0.45838578  0.14070808  0.35337165     0.78100
Zn622      Zn  0.49461746  0.88184821  0.29530206     1.49700
Zn623      Zn  0.50208219  0.87961237  0.34398704     1.49400
Zn624      Zn  0.47625686  0.84242097  0.32107614     1.49100
Zn625      Zn  0.52339378  0.84490889  0.31426316     1.49500
O626        O  0.49912504  0.86264748  0.31868366    -1.83200
O627        O  0.49698611  0.91337527  0.30378717    -0.73800
O628        O  0.48081395  0.86860062  0.36529419    -0.73600
O629        O  0.45080622  0.85630000  0.30956697    -0.73200
O630        O  0.49869552  0.91210867  0.33883803    -0.73800
O631        O  0.46453709  0.87913624  0.28631428    -0.73400
O632        O  0.46953858  0.83786349  0.35201543    -0.74000
O633        O  0.51614637  0.81587492  0.30242740    -0.73400
O634        O  0.53069524  0.87337195  0.35659878    -0.74200
O635        O  0.48135359  0.81527069  0.30385171    -0.73600
O636        O  0.54149816  0.84388292  0.34060076    -0.74000
O637        O  0.53998438  0.85751602  0.29086872    -0.73900
O638        O  0.51572363  0.87513577  0.27224593    -0.73700
C639        C  0.49739312  0.92282018  0.32165215     0.78100
C640        C  0.47048576  0.85133927  0.36700816     0.78600
C641        C  0.44887100  0.87044828  0.29543641     0.77500
C642        C  0.49867984  0.80713724  0.29779921     0.77900
C643        C  0.54342551  0.85788293  0.35495276     0.79000
C644        C  0.53400557  0.86698082  0.27412607     0.78100
Zn645      Zn  0.63654814  0.20865341  0.98874993     1.49700
Zn646      Zn  0.61280334  0.16545447  0.97725698     1.49400
Zn647      Zn  0.65848374  0.16528801  0.00080249     1.49100
Zn648      Zn  0.61509145  0.18034565  0.02219852     1.49500
O649        O  0.63126487  0.17976773  0.99687137    -1.83200
O650        O  0.62596144  0.21383074  0.95957030    -0.73800
O651        O  0.62644340  0.13786348  0.96955525    -0.73600
O652        O  0.68429990  0.18694147  0.00017740    -0.73200
O653        O  0.61218327  0.18268348  0.95060041    -0.73800
O654        O  0.66707074  0.21487563  0.98790505    -0.73400
O655        O  0.66050072  0.14266067  0.97732485    -0.74000
O656        O  0.62413032  0.15620991  0.04015304    -0.73400
O657        O  0.58160988  0.16259128  0.98716734    -0.74200
O658        O  0.65647571  0.14839619  0.02884518    -0.73600
O659        O  0.58290765  0.17979604  0.01757848    -0.74000
O660        O  0.62280194  0.20636005  0.03732193    -0.73900
O661        O  0.62628203  0.22924435  0.01072371    -0.73700
C662        C  0.61755399  0.20155451  0.94608846     0.78100
C663        C  0.64569691  0.13220648  0.96838217     0.78600
C664        C  0.68412182  0.20619080  0.99362592     0.77500
C665        C  0.64113461  0.14569905  0.04171991     0.77900
C666        C  0.57222906  0.17086655  0.00301163     0.79000
C667        C  0.62492240  0.22509667  0.03043048     0.78100
Zn668      Zn  0.38339182  0.20242290  0.01330227     1.49700
Zn669      Zn  0.34581800  0.18657203  0.98246442     1.49400
Zn670      Zn  0.37906296  0.15507342  0.00376737     1.49100
Zn671      Zn  0.34246181  0.17917046  0.03012891     1.49500
O672        O  0.36299984  0.18073675  0.00735631    -1.83200
O673        O  0.37893193  0.22579300  0.99232578    -0.73800
O674        O  0.34479282  0.16133305  0.96246158    -0.73600
O675        O  0.41178406  0.15840741  0.00596035    -0.73200
O676        O  0.35988504  0.20990870  0.96716723    -0.73800
O677        O  0.41423811  0.19292441  0.01065595    -0.73400
O678        O  0.37272469  0.14396577  0.97489149    -0.74000
O679        O  0.33709793  0.14835818  0.03645761    -0.73400
O680        O  0.31728051  0.19946669  0.98933141    -0.74200
O681        O  0.36712328  0.13398888  0.02471154    -0.73600
O682        O  0.31618467  0.19788172  0.02437629    -0.74000
O683        O  0.35589261  0.18957492  0.05662407    -0.73900
O684        O  0.38102321  0.21060610  0.04378582    -0.73700
C685        C  0.37131070  0.22507041  0.97363600     0.78100
C686        C  0.35854058  0.14674616  0.96090454     0.78600
C687        C  0.42304161  0.17499728  0.00830043     0.77500
C688        C  0.35001369  0.13292454  0.03529765     0.77900
C689        C  0.30860032  0.20446265  0.00679749     0.79000
C690        C  0.37094941  0.20245771  0.05921262     0.78100
Zn691      Zn  0.52484021  0.31693938  0.15212500     1.49700
Zn692      Zn  0.49945264  0.34254907  0.11645247     1.49400
Zn693      Zn  0.50349869  0.29367553  0.11276374     1.49100
Zn694      Zn  0.47719996  0.31267570  0.15162606     1.49500
O695        O  0.50105574  0.31654078  0.13286124    -1.83200
O696        O  0.53342050  0.34713696  0.15743735    -0.73800
O697        O  0.50156073  0.33821191  0.08343392    -0.73600
O698        O  0.53353134  0.28395442  0.11299886    -0.73200
O699        O  0.52176086  0.36275521  0.12784072    -0.73800
O700        O  0.54906083  0.30468832  0.13691876    -0.73400
O701        O  0.49949999  0.30329277  0.08179648    -0.74000
O702        O  0.45957747  0.29005388  0.13938059    -0.73400
O703        O  0.47156648  0.35587097  0.12354546    -0.74200
O704        O  0.48179496  0.27106601  0.11977435    -0.73600
O705        O  0.45904586  0.33917843  0.15214191    -0.74000
O706        O  0.48520658  0.30005761  0.18076411    -0.73900
O707        O  0.52000472  0.29927637  0.17910713    -0.73700
C708        C  0.53269504  0.36297265  0.14485425     0.78100
C709        C  0.50046397  0.32123016  0.07248892     0.78600
C710        C  0.54988205  0.29159579  0.12180526     0.77500
C711        C  0.46406205  0.27355394  0.12894263     0.77900
C712        C  0.45800944  0.35396985  0.13835258     0.79000
C713        C  0.50290081  0.29415619  0.18835027     0.78100
Zn714      Zn  0.50032631  0.34169051  0.87720972     1.49700
Zn715      Zn  0.47548552  0.31151790  0.84511440     1.49400
Zn716      Zn  0.52383922  0.31562170  0.83949510     1.49100
Zn717      Zn  0.50512712  0.29369783  0.88193236     1.49500
O718        O  0.50148916  0.31576278  0.86101125    -1.83200
O719        O  0.47327686  0.35624789  0.86941854    -0.73800
O720        O  0.48049159  0.29512412  0.81762955    -0.73600
O721        O  0.53712241  0.34532678  0.83721960    -0.73200
O722        O  0.46031783  0.33964053  0.84110750    -0.73800
O723        O  0.52387690  0.36013937  0.86641941    -0.73400
O724        O  0.51429129  0.30126014  0.81128275    -0.74000
O725        O  0.52988214  0.27620916  0.87367241    -0.73400
O726        O  0.45631507  0.29444259  0.86353042    -0.74200
O727        O  0.54649436  0.29605603  0.84955058    -0.73600
O728        O  0.47920082  0.27653296  0.88345585    -0.74000
O729        O  0.50787515  0.30397543  0.91290131    -0.73900
O730        O  0.50180971  0.33827635  0.91030436    -0.73700
C731        C  0.45992980  0.35481531  0.85438140     0.78100
C732        C  0.49681339  0.29259924  0.80613761     0.78600
C733        C  0.53628763  0.36055196  0.85050764     0.77500
C734        C  0.54557329  0.28003160  0.86172360     0.77900
C735        C  0.46051126  0.28117468  0.87806682     0.79000
C736        C  0.50503357  0.32185191  0.92173237     0.78100
Zn737      Zn  0.18676336  0.34920359  0.02227823     1.49700
Zn738      Zn  0.17854541  0.34154035  0.97508020     1.49400
Zn739      Zn  0.15625245  0.38101088  0.99742247     1.49100
Zn740      Zn  0.20378020  0.38292540  0.98893792     1.49500
O741        O  0.18125297  0.36386636  0.99587621    -1.83200
O742        O  0.20077672  0.32073074  0.01797804    -0.73800
O743        O  0.14768973  0.33804041  0.96746037    -0.73600
O744        O  0.14215503  0.37407992  0.02475042    -0.73200
O745        O  0.19535480  0.31475644  0.98380019    -0.73800
O746        O  0.16035591  0.34804527  0.04012684    -0.73400
O747        O  0.13638517  0.37068231  0.97492316    -0.74000
O748        O  0.19562370  0.41434613  0.99057608    -0.73400
O749        O  0.19139733  0.35164408  0.94820261    -0.74200
O750        O  0.16124159  0.41353889  0.99580758    -0.73600
O751        O  0.21305224  0.37716709  0.95915544    -0.74000
O752        O  0.22626199  0.37977388  0.01062905    -0.73900
O753        O  0.20760654  0.36657181  0.03757584    -0.73700
C754        C  0.20365874  0.30951927  0.00151951     0.78100
C755        C  0.13395598  0.35275284  0.96603741     0.78600
C756        C  0.14451506  0.36038637  0.03937771     0.77500
C757        C  0.17828246  0.42401466  0.99339007     0.77900
C758        C  0.20539324  0.36549226  0.94465249     0.79000
C759        C  0.22305616  0.37712124  0.03036313     0.78100
Zn760      Zn  0.18459811  0.65424179  0.97893413     1.49700
Zn761      Zn  0.18563818  0.65094219  0.02658771     1.49400
Zn762      Zn  0.16013505  0.61626826  0.99938334     1.49100
Zn763      Zn  0.20933992  0.61522766  0.00085527     1.49500
O764        O  0.18510208  0.63358341  0.00166800    -1.83200
O765        O  0.19742894  0.68276345  0.98637283    -0.73800
O766        O  0.15601938  0.65308164  0.03778302    -0.73600
O767        O  0.14628817  0.62271421  0.97144829    -0.73200
O768        O  0.20000273  0.67971373  0.02119856    -0.73800
O769        O  0.15633479  0.65582667  0.96479131    -0.73400
O770        O  0.13980259  0.62595406  0.02200519    -0.74000
O771        O  0.20086631  0.58346581  0.99954475    -0.73400
O772        O  0.20364481  0.63692514  0.04824966    -0.74200
O773        O  0.16598348  0.58409888  0.00055304    -0.73600
O774        O  0.22649065  0.61992828  0.02758520    -0.74000
O775        O  0.22550940  0.62219494  0.97416616    -0.73900
O776        O  0.20311222  0.64334572  0.95690792    -0.73700
C777        C  0.20377468  0.68984971  0.00409800     0.78100
C778        C  0.13992548  0.64127710  0.03511727     0.78600
C779        C  0.14479121  0.63983712  0.96089152     0.77500
C780        C  0.18320506  0.57373521  0.99977525     0.77900
C781        C  0.22088144  0.62712608  0.04558243     0.79000
C782        C  0.21942672  0.63191263  0.95750777     0.78100
Zn783      Zn  0.32346825  0.52669999  0.15977287     1.49700
Zn784      Zn  0.31311507  0.47957749  0.15159431     1.49400
Zn785      Zn  0.30115593  0.51468885  0.11582352     1.49100
Zn786      Zn  0.34687829  0.50109280  0.12100835     1.49500
O787        O  0.32119933  0.50560518  0.13708615    -1.83200
O788        O  0.30750581  0.51822838  0.18761247    -0.73800
O789        O  0.29090751  0.46671069  0.13371495    -0.73600
O790        O  0.29189092  0.54408251  0.12181481    -0.73200
O791        O  0.29899620  0.48510932  0.18011761    -0.73800
O792        O  0.31013760  0.55396320  0.15026090    -0.73400
O793        O  0.27765776  0.49415943  0.11571288    -0.74000
O794        O  0.34387554  0.50159704  0.08804899    -0.73400
O795        O  0.33771138  0.45849512  0.15323231    -0.74200
O796        O  0.31178486  0.51450675  0.08497790    -0.73600
O797        O  0.35836594  0.47275958  0.12853949    -0.74000
O798        O  0.36760990  0.52271160  0.13162435    -0.73900
O799        O  0.35430112  0.53427510  0.16240286    -0.73700
C800        C  0.29771276  0.50114081  0.19224636     0.78100
C801        C  0.27761132  0.47471083  0.12095053     0.78600
C802        C  0.29770061  0.55802772  0.13504511     0.77500
C803        C  0.32866444  0.50788176  0.07642448     0.77900
C804        C  0.35406020  0.45793965  0.14148823     0.79000
C805        C  0.36903733  0.53352669  0.14861819     0.78100
Zn806      Zn  0.32485070  0.51854377  0.88367342     1.49700
Zn807      Zn  0.32938804  0.49475872  0.83865175     1.49400
Zn808      Zn  0.32067329  0.47256432  0.88476545     1.49100
Zn809      Zn  0.28492833  0.49969379  0.86074457     1.49500
O810        O  0.31469309  0.49616246  0.86637471    -1.83200
O811        O  0.35220322  0.52788538  0.87232255    -0.73800
O812        O  0.34774533  0.46783389  0.83887616    -0.73600
O813        O  0.32498326  0.47857763  0.91713853    -0.73200
O814        O  0.35060185  0.51943247  0.83798960    -0.73800
O815        O  0.32629749  0.51333802  0.91582000    -0.73400
O816        O  0.34571791  0.45806135  0.87292182    -0.74000
O817        O  0.26958133  0.47315294  0.86977670    -0.73400
O818        O  0.30859116  0.49608508  0.81215254    -0.74200
O819        O  0.29648747  0.45336272  0.88103036    -0.73600
O820        O  0.27902247  0.50221275  0.82962330    -0.74000
O821        O  0.27456110  0.52740731  0.87267720    -0.73900
O822        O  0.30558691  0.54206064  0.88006064    -0.73700
C823        C  0.35927040  0.52906659  0.85350427     0.78100
C824        C  0.35381849  0.45646645  0.85455509     0.78600
C825        C  0.32642458  0.49631878  0.92661203     0.77500
C826        C  0.27732577  0.45546226  0.87558248     0.77900
C827        C  0.28878968  0.50002220  0.81223030     0.79000
C828        C  0.28586448  0.54335497  0.87746396     0.78100
Zn829      Zn  0.99606747  0.61876056  0.20037560     1.49700
Zn830      Zn  0.97167606  0.65710313  0.17869804     1.49400
Zn831      Zn  0.01971304  0.65587092  0.17613798     1.49100
Zn832      Zn  0.99405082  0.62094907  0.15086687     1.49500
O833        O  0.99521522  0.63777509  0.17633789    -1.83200
O834        O  0.97215622  0.62579354  0.22013868    -0.73800
O835        O  0.98008941  0.68504305  0.19315547    -0.73600
O836        O  0.04230160  0.64035658  0.19087796    -0.73200
O837        O  0.95122479  0.64433650  0.19861873    -0.73800
O838        O  0.02456442  0.62047754  0.21403769    -0.73400
O839        O  0.01493246  0.68308186  0.19318223    -0.74000
O840        O  0.01842207  0.62952247  0.13211325    -0.73400
O841        O  0.95617654  0.65938314  0.15063798    -0.74200
O842        O  0.03076898  0.65938377  0.14626251    -0.73600
O843        O  0.96810472  0.63014960  0.13490976    -0.74000
O844        O  0.99412494  0.58826838  0.15659782    -0.73900
O845        O  0.99321404  0.58744616  0.19169962    -0.73700
C846        C  0.95437065  0.63392247  0.21553303     0.78100
C847        C  0.99797704  0.69218300  0.19897271     0.78600
C848        C  0.04169807  0.62759004  0.20637026     0.77500
C849        C  0.03042947  0.64570513  0.13143770     0.77900
C850        C  0.95557979  0.64591306  0.13563263     0.79000
C851        C  0.99342927  0.57777084  0.17397410     0.78100
Zn852      Zn  0.99583973  0.38384863  0.15137254     1.49700
Zn853      Zn  0.97258399  0.34518644  0.17481801     1.49400
Zn854      Zn  0.01977652  0.34950017  0.18053097     1.49100
Zn855      Zn  0.99104370  0.38603826  0.20018563     1.49500
O856        O  0.99472935  0.36652358  0.17680230    -1.83200
O857        O  0.97213707  0.37450026  0.13227330    -0.73800
O858        O  0.98001276  0.31698727  0.19027650    -0.73600
O859        O  0.03622292  0.34862537  0.15343883    -0.73200
O860        O  0.96245900  0.34263869  0.14420606    -0.73800
O861        O  0.02243745  0.37619858  0.13613627    -0.73400
O862        O  0.01450158  0.32021822  0.19380014    -0.74000
O863        O  0.01477997  0.38159948  0.22135569    -0.73400
O864        O  0.94795203  0.35687728  0.19000047    -0.74200
O865        O  0.03773735  0.36417037  0.20118362    -0.73600
O866        O  0.96191723  0.38100231  0.21171488    -0.74000
O867        O  0.99203081  0.41776335  0.19128394    -0.73900
O868        O  0.99487543  0.41655906  0.15638157    -0.73700
C869        C  0.96160829  0.35740268  0.13034382     0.78100
C870        C  0.99757248  0.30995712  0.19725063     0.78600
C871        C  0.03615042  0.36160068  0.13795992     0.77500
C872        C  0.03330125  0.37479967  0.21758195     0.77900
C873        C  0.94630826  0.37045401  0.20464147     0.79000
C874        C  0.99342975  0.42729213  0.17345995     0.78100
Zn875      Zn  0.16204299  0.50846142  0.33394388     1.49700
Zn876      Zn  0.11751718  0.48336029  0.33221307     1.49400
Zn877      Zn  0.11709528  0.52865626  0.32167432     1.49100
Zn878      Zn  0.14091995  0.49832463  0.28958309     1.49500
O879        O  0.13503922  0.50445147  0.31907330    -1.83200
O880        O  0.16384364  0.48514783  0.35718266    -0.73800
O881        O  0.08586454  0.49002593  0.33452626    -0.73600
O882        O  0.12633488  0.54460063  0.34686292    -0.73200
O883        O  0.13014143  0.47528828  0.35995612    -0.73800
O884        O  0.16037885  0.53654410  0.35042338    -0.73400
O885        O  0.08499975  0.52302645  0.32333844    -0.74000
O886        O  0.13080428  0.52306536  0.27167621    -0.73400
O887        O  0.11768375  0.45837960  0.31386720    -0.74200
O888        O  0.12226482  0.54638525  0.29668002    -0.73600
O889        O  0.12767219  0.47020833  0.28205636    -0.74000
O890        O  0.17217823  0.49615380  0.28350634    -0.73900
O891        O  0.18795105  0.50771613  0.31267521    -0.73700
C892        C  0.14901866  0.47521511  0.36675154     0.78100
C893        C  0.07536614  0.50636480  0.32932495     0.78600
C894        C  0.14418134  0.54739104  0.35551226     0.77500
C895        C  0.12587710  0.54172019  0.27749300     0.77900
C896        C  0.12014436  0.45582233  0.29408835     0.79000
C897        C  0.18883257  0.50148498  0.29334525     0.78100
Zn898      Zn  0.85978302  0.50149406  0.29051175     1.49700
Zn899      Zn  0.88473335  0.47380261  0.32499695     1.49400
Zn900      Zn  0.88423223  0.52036439  0.33073789     1.49100
Zn901      Zn  0.84011485  0.49602357  0.33626393     1.49500
O902        O  0.86676775  0.49786881  0.32031852    -1.83200
O903        O  0.86909491  0.47545386  0.27420020    -0.73800
O904        O  0.91683831  0.48000601  0.32690449    -0.73600
O905        O  0.88199114  0.54395226  0.31053694    -0.73200
O906        O  0.87973970  0.45461036  0.30075352    -0.73800
O907        O  0.87122293  0.52949975  0.28019279    -0.73400
O908        O  0.91594971  0.51435909  0.33258757    -0.74000
O909        O  0.83888890  0.52124511  0.35694563    -0.73400
O910        O  0.87510232  0.45986314  0.35176550    -0.74200
O911        O  0.87283919  0.53027501  0.35829669    -0.73600
O912        O  0.84164570  0.47000523  0.35559926    -0.74000
O913        O  0.81355263  0.49535379  0.31631848    -0.73900
O914        O  0.82844553  0.50316544  0.28547109    -0.73700
C915        C  0.87467834  0.45743723  0.28142866     0.78100
C916        C  0.92644255  0.49742380  0.33016023     0.78600
C917        C  0.87800960  0.54517981  0.29087291     0.77500
C918        C  0.85414420  0.53136523  0.36542806     0.77900
C919        C  0.85750222  0.45900663  0.36138262     0.79000
C920        C  0.81210688  0.49954215  0.29648697     0.78100
Zn921      Zn  0.19470584  0.97616092  0.65126818     1.49700
Zn922      Zn  0.18871995  0.02327856  0.65849636     1.49400
Zn923      Zn  0.21108348  0.00757867  0.61476279     1.49100
Zn924      Zn  0.16396339  0.00176541  0.61983632     1.49500
O925        O  0.18977640  0.00224476  0.63598292    -1.83200
O926        O  0.21198844  0.98090106  0.67888371    -0.73800
O927        O  0.20610096  0.04749469  0.64893929    -0.73600
O928        O  0.22991681  0.98255395  0.61367803    -0.73200
O929        O  0.20346360  0.01399502  0.68646500    -0.73800
O930        O  0.21065868  0.95840852  0.63079903    -0.73400
O931        O  0.22557966  0.03490068  0.62232606    -0.74000
O932        O  0.16692663  0.99968543  0.58690839    -0.73400
O933        O  0.15911116  0.03549501  0.66077122    -0.74200
O934        O  0.20040457  0.00837959  0.58369094    -0.73600
O935        O  0.14807690  0.02787954  0.62800619    -0.74000
O936        O  0.14749267  0.97702074  0.63012723    -0.73900
O937        O  0.16642844  0.96124891  0.65550421    -0.73700
C938        C  0.21340555  0.99700485  0.69101850     0.78100
C939        C  0.22068638  0.04945843  0.63538239     0.78600
C940        C  0.22398668  0.96355457  0.61665923     0.77500
C941        C  0.18286658  0.00340620  0.57517125     0.77900
C942        C  0.14660493  0.03839794  0.64515957     0.79000
C943        C  0.14967827  0.96288551  0.64435979     0.78100
Zn944      Zn  0.18411029  0.97013754  0.34660313     1.49700
Zn945      Zn  0.15402639  0.99361514  0.38096504     1.49400
Zn946      Zn  0.20261975  0.99861470  0.38408539     1.49100
Zn947      Zn  0.17839234  0.01789150  0.34368777     1.49500
O948        O  0.17970620  0.99486149  0.36421290    -1.83200
O949        O  0.15772224  0.95197322  0.34660525    -0.73800
O950        O  0.15876364  0.99454513  0.41406492    -0.73600
O951        O  0.22537969  0.97703281  0.37794518    -0.73200
O952        O  0.13976972  0.96630535  0.37339802    -0.73800
O953        O  0.20673204  0.95320386  0.35989554    -0.73400
O954        O  0.19357800  0.99539154  0.41530702    -0.74000
O955        O  0.19158890  0.04286719  0.35689264    -0.73400
O956        O  0.13462404  0.01703397  0.37032340    -0.74200
O957        O  0.21233735  0.02870294  0.38170089    -0.73600
O958        O  0.14833363  0.02711989  0.33927691    -0.74000
O959        O  0.19496571  0.01194535  0.31627968    -0.73900
O960        O  0.19674021  0.97700908  0.31706900    -0.73700
C961        C  0.14216229  0.95202164  0.35940782     0.78100
C962        C  0.17587762  0.99473738  0.42481842     0.78600
C963        C  0.22321953  0.95870379  0.36985226     0.77500
C964        C  0.20513890  0.04454413  0.37151289     0.77900
C965        C  0.13363254  0.02760355  0.35301838     0.79000
C966        C  0.20123603  0.99460834  0.30817267     0.78100
Zn967      Zn  0.32092601  0.11292428  0.47609475     1.49700
Zn968      Zn  0.28691565  0.13763782  0.50300020     1.49400
Zn969      Zn  0.32705048  0.11453893  0.52274448     1.49100
Zn970      Zn  0.33195572  0.15832693  0.49590708     1.49500
O971        O  0.31655486  0.13138527  0.49957292    -1.83200
O972        O  0.29679259  0.11680544  0.45695375    -0.73800
O973        O  0.27748384  0.12865706  0.53203296    -0.73600
O974        O  0.32788584  0.08204122  0.51776114    -0.73200
O975        O  0.27032671  0.12627172  0.47805073    -0.73800
O976        O  0.32318027  0.08122703  0.48313472    -0.73400
O977        O  0.30799542  0.11953281  0.54700207    -0.74000
O978        O  0.35439398  0.15971935  0.51945027    -0.73400
O979        O  0.28127450  0.16884557  0.50297440    -0.74200
O980        O  0.35535022  0.12606307  0.53047400    -0.73600
O981        O  0.31162477  0.18484266  0.49621882    -0.74000
O982        O  0.34938630  0.15668253  0.46840801    -0.73900
O983        O  0.34641443  0.12240002  0.46076544    -0.73700
C984        C  0.27745654  0.12083400  0.45999194     0.78100
C985        C  0.28855689  0.12401721  0.54824506     0.78600
C986        C  0.32590781  0.07153325  0.50066003     0.77500
C987        C  0.36315057  0.14462996  0.52974010     0.77900
C988        C  0.29179549  0.18565093  0.49991935     0.79000
C989        C  0.35497979  0.14037095  0.45792669     0.78100
Zn990      Zn  0.29315128  0.85739583  0.48103920     1.49700
Zn991      Zn  0.33423981  0.83575439  0.49786464     1.49400
Zn992      Zn  0.33665076  0.88138786  0.47567221     1.49100
Zn993      Zn  0.31762332  0.87847549  0.51949117     1.49500
O994        O  0.32031998  0.86297469  0.49352286    -1.83200
O995        O  0.28479157  0.82664584  0.48339581    -0.73800
O996        O  0.35878630  0.83435982  0.47665747    -0.73600
O997        O  0.32454373  0.88152823  0.44660534    -0.73200
O998        O  0.31271794  0.81052882  0.49705410    -0.73800
O999        O  0.29337529  0.86586964  0.45034110    -0.73400
O1000       O  0.36531602  0.86899942  0.47332633    -0.74000
O1001       O  0.32265723  0.91084271  0.51665412    -0.73400
O1002       O  0.34834534  0.83597678  0.52661171    -0.74200
O1003       O  0.33658468  0.91261596  0.48463378    -0.73600
O1004       O  0.33747168  0.86617659  0.54100181    -0.74000
O1005       O  0.28800280  0.87484379  0.52861988    -0.73900
O1006       O  0.27131811  0.87354355  0.49747472    -0.73700
C1007       C  0.29359074  0.81006946  0.49065033     0.78100
C1008       C  0.37069958  0.84973326  0.47100588     0.78600
C1009       C  0.30703663  0.87541860  0.43908131     0.77500
C1010       C  0.33003304  0.92176914  0.50131879     0.77900
C1011       C  0.34851080  0.84938911  0.54161858     0.79000
C1012       C  0.27144878  0.87661407  0.51741053     0.78100
Zn1013     Zn  0.98772687  0.20272853  0.63699654     1.49700
Zn1014     Zn  0.02523201  0.17857654  0.61696094     1.49400
Zn1015     Zn  0.00496957  0.16314625  0.66045365     1.49100
Zn1016     Zn  0.98334171  0.15734808  0.61407801     1.49500
O1017       O  0.99989569  0.17536271  0.63249712    -1.83200
O1018       O  0.00530276  0.22413156  0.62144532    -0.73800
O1019       O  0.04515326  0.15613643  0.62730538    -0.73600
O1020       O  0.00373791  0.18588897  0.68483786    -0.73200
O1021       O  0.03597886  0.20722214  0.62363062    -0.73800
O1022       O  0.98785276  0.21199959  0.66763050    -0.73400
O1023       O  0.03335719  0.14824323  0.65971659    -0.74000
O1024       O  0.97890745  0.12981893  0.62982182    -0.73400
O1025       O  0.02082721  0.17707714  0.58427715    -0.74200
O1026       O  0.98334625  0.13930547  0.66377562    -0.73600
O1027       O  0.99376326  0.15520369  0.58253929    -0.74000
O1028       O  0.95489996  0.17055032  0.61149207    -0.73900
O1029       O  0.95812209  0.20216778  0.62670602    -0.73700
C1030       C  0.02530407  0.22387367  0.62027199     0.78100
C1031       C  0.04661137  0.14593140  0.64471620     0.78600
C1032       C  0.99558803  0.20442031  0.68462537     0.77500
C1033       C  0.97670309  0.12638576  0.64968627     0.77900
C1034       C  0.00789083  0.16625196  0.57321466     0.79000
C1035       C  0.94734669  0.18832680  0.61693548     0.78100
Zn1036     Zn  0.01195916  0.20514738  0.38227667     1.49700
Zn1037     Zn  0.98190013  0.18911672  0.34347386     1.49400
Zn1038     Zn  0.02947014  0.18251004  0.33964234     1.49100
Zn1039     Zn  0.00394789  0.15741721  0.37698538     1.49500
O1040       O  0.00688177  0.18362322  0.36086883    -1.83200
O1041       O  0.98973187  0.22735203  0.37860262    -0.73800
O1042       O  0.98793073  0.20190996  0.31405491    -0.73600
O1043       O  0.05448449  0.19760546  0.35143215    -0.73200
O1044       O  0.96611398  0.21198425  0.35738508    -0.73800
O1045       O  0.04073668  0.21723324  0.37728547    -0.73400
O1046       O  0.02245991  0.19869792  0.31156048    -0.74000
O1047       O  0.02593665  0.13736905  0.36581784    -0.73400
O1048       O  0.96312034  0.16312014  0.34230905    -0.74200
O1049       O  0.03844314  0.15179772  0.33591969    -0.73600
O1050       O  0.97652721  0.14396455  0.36880873    -0.74000
O1051       O  0.00514051  0.16030495  0.41023966    -0.73900
O1052       O  0.01093778  0.19457059  0.41375986    -0.73700
C1053       C  0.97180955  0.22688604  0.36954423     0.78100
C1054       C  0.00502126  0.20558389  0.30416332     0.78600
C1055       C  0.05607673  0.21175175  0.36556780     0.77500
C1056       C  0.03707579  0.13637648  0.34901849     0.63500
C1057       C  0.96271964  0.14697158  0.35447641     0.79000
C1058       C  0.00801233  0.17638833  0.42216805     0.78100
Zn1059     Zn  0.12098382  0.34384946  0.49707557     1.49700
Zn1060     Zn  0.15902365  0.31969141  0.47303504     1.49400
Zn1061     Zn  0.15302034  0.31274212  0.52114626     1.49100
Zn1062     Zn  0.11794219  0.29547502  0.49023047     1.49500
O1063       O  0.13761766  0.31817464  0.49511546    -1.83200
O1064       O  0.13076880  0.36369990  0.47372590    -0.73800
O1065       O  0.18685213  0.30457261  0.48192261    -0.73600
O1066       O  0.15695853  0.34031638  0.53719002    -0.73200
O1067       O  0.16144568  0.35030277  0.46272329    -0.73800
O1068       O  0.12987857  0.35849413  0.52383390    -0.73400
O1069       O  0.18037540  0.29658817  0.51557598    -0.74000
O1070       O  0.11936565  0.27490508  0.51388575    -0.73400
O1071       O  0.14886729  0.30289803  0.44814903    -0.74200
O1072       O  0.13435386  0.29458910  0.53889454    -0.73600
O1073       O  0.12447942  0.28185684  0.46250846    -0.74000
O1074       O  0.08697836  0.30464338  0.49092044    -0.73900
O1075       O  0.08814339  0.33903606  0.49706841    -0.73700
C1076       C  0.14773431  0.36511598  0.46294254     0.78100
C1077       C  0.19186678  0.29497075  0.49909070     0.78600
C1078       C  0.14487865  0.35643981  0.53710671     0.77500
C1079       C  0.12207059  0.27980189  0.53318610     0.77900
C1080       C  0.13609999  0.28746305  0.44706191     0.79000
C1081       C  0.07751005  0.32203135  0.49445583     0.78100
Zn1082     Zn  0.85044232  0.31514745  0.47829375     1.49700
Zn1083     Zn  0.84806293  0.31021022  0.52626781     1.49400
Zn1084     Zn  0.88850629  0.29178840  0.50171953     1.49100
Zn1085     Zn  0.88448359  0.33999346  0.50483986     1.49500
O1086       O  0.86809629  0.31424754  0.50320674    -1.83200
O1087       O  0.82346661  0.29787020  0.48173736    -0.73800
O1088       O  0.85872752  0.28663412  0.54448481    -0.73600
O1089       O  0.88914928  0.28143617  0.47212552    -0.73200
O1090       O  0.81883458  0.29920007  0.51649233    -0.73800
O1091       O  0.86711421  0.30293717  0.45489055    -0.73400
O1092       O  0.88055660  0.26939433  0.52284175    -0.74000
O1093       O  0.91709197  0.33592631  0.50409649    -0.73400
O1094       O  0.84712635  0.33707078  0.54373646    -0.74200
O1095       O  0.91943761  0.30108899  0.50609587    -0.73600
O1096       O  0.87540080  0.35430208  0.53140173    -0.74000
O1097       O  0.87534528  0.35963925  0.48129963    -0.73900
O1098       O  0.84540946  0.34547629  0.46950312    -0.73700
C1099       C  0.81266119  0.29335416  0.49816307     0.78100
C1100       C  0.86993582  0.27063550  0.53991295     0.78600
C1101       C  0.88194075  0.28955434  0.45515645     0.77500
C1102       C  0.92830422  0.31917840  0.50511638     0.77900
C1103       C  0.86005979  0.35253940  0.54428171     0.79000
C1104       C  0.85871952  0.36058020  0.47001929     0.78100
C1105       C  0.02220397  0.33188239  0.49850569     0.30700
C1106       C  0.00346338  0.34390078  0.49970375    -0.35600
C1107       C  0.98435186  0.33251706  0.50163563     0.16700
C1108       C  0.98370627  0.31076841  0.50238123     0.22500
C1109       C  0.00238009  0.29877267  0.50109476    -0.33800
C1110       C  0.02142038  0.31013391  0.49908491     0.16600
O1111       O  0.04180682  0.33921135  0.49677362    -0.25800
C1112       C  0.05385196  0.32188689  0.49603465     0.06400
C1113       C  0.04183362  0.30340499  0.49742494    -0.30700
O1114       O  0.96422919  0.30329785  0.50406010    -0.22500
C1115       C  0.95195321  0.32044175  0.50444278    -0.02500
C1116       C  0.96375430  0.33907898  0.50292875    -0.16900
H1117       H  0.00374544  0.36098037  0.49914405     0.21100
H1118       H  0.00208955  0.28168659  0.50155861     0.19500
H1119       H  0.04739896  0.28725275  0.49744702     0.19400
H1120       H  0.95796893  0.35514329  0.50254832     0.15300
C1121       C  0.09654058  0.24633913  0.37680843     0.30700
C1122       C  0.10397844  0.26659736  0.38153925    -0.35600
C1123       C  0.11871837  0.26780482  0.39794397     0.16700
C1124       C  0.12570810  0.25017108  0.40884081     0.22500
C1125       C  0.11935724  0.22981360  0.40313122    -0.33800
C1126       C  0.10448384  0.22862850  0.38687481     0.16600
O1127       O  0.07916894  0.24226536  0.36627028    -0.25800
C1128       C  0.07632275  0.22169321  0.36918262     0.06400
C1129       C  0.09166366  0.21230149  0.38162546    -0.30700
O1130       O  0.13469304  0.25505288  0.42691486    -0.22500
C1131       C  0.13395251  0.27598658  0.42732541    -0.02500
C1132       C  0.12453673  0.28484711  0.40959680    -0.16900
H1133       H  0.09683604  0.28059233  0.37478350     0.21100
H1134       H  0.12363871  0.21611889  0.41248655     0.19500
H1135       H  0.09153773  0.19655382  0.38837395     0.19400
H1136       H  0.11964049  0.30108053  0.40738495     0.15300
C1137       C  0.90378125  0.27261247  0.40790527     0.30700
C1138       C  0.90633388  0.25880858  0.39086867    -0.35600
C1139       C  0.92692522  0.25666034  0.38336747     0.16700
C1140       C  0.94374194  0.26769553  0.39180593     0.22500
C1141       C  0.94098481  0.28236340  0.40793719    -0.33800
C1142       C  0.92060048  0.28404062  0.41578045     0.16600
O1143       O  0.88709202  0.27369160  0.42021208    -0.25800
C1144       C  0.89357177  0.28590876  0.43592653     0.06400
C1145       C  0.91407441  0.29289731  0.43398130    -0.30700
O1146       O  0.96195153  0.25966216  0.38641075    -0.22500
C1147       C  0.95678271  0.24341477  0.37433343    -0.02500
C1148       C  0.93526975  0.24107016  0.37137851    -0.16900
H1149       H  0.89370644  0.24867210  0.38552676     0.21100
H1150       H  0.95420471  0.28992641  0.41561079     0.19500
H1151       H  0.92332425  0.30169224  0.44534812     0.19400
H1152       H  0.92703372  0.22794576  0.36419462     0.15300
C1153       C  0.06461301  0.25536223  0.60165186     0.30700
C1154       C  0.08610283  0.25945993  0.59892791    -0.35600
C1155       C  0.09235447  0.26421697  0.57823022     0.16700
C1156       C  0.07837702  0.26476021  0.56150853     0.22500
C1157       C  0.05683768  0.26176617  0.56440271    -0.33800
C1158       C  0.05054012  0.25729090  0.58507767     0.16600
O1159       O  0.05625749  0.24574288  0.61806876    -0.25800
C1160       C  0.03657147  0.24199915  0.61207749     0.06400
C1161       C  0.03193336  0.24949907  0.59198060    -0.30700
O1162       O  0.08760188  0.26851706  0.54337363    -0.22500
C1163       C  0.10769760  0.27076444  0.54850550    -0.02500
C1164       C  0.11169374  0.26842148  0.57000626    -0.16900
H1165       H  0.09731373  0.25762502  0.61169745     0.21100
H1166       H  0.04591167  0.26180668  0.55125352     0.19500
H1167       H  0.01831926  0.24576213  0.58238046     0.19400
H1168       H  0.12645836  0.27023733  0.57833699     0.15300
C1169       C  0.88155687  0.22447896  0.56699500     0.30700
C1170       C  0.89171397  0.20495347  0.56841016    -0.35600
C1171       C  0.90170736  0.20065060  0.58765898     0.16700
C1172       C  0.90145089  0.21459468  0.60446307     0.22500
C1173       C  0.88989854  0.23336657  0.60359175    -0.33800
C1174       C  0.88017319  0.23781272  0.58422993     0.16600
O1175       O  0.87654188  0.23396913  0.54916213    -0.25800
C1176       C  0.87152107  0.25339195  0.55510136     0.06400
C1177       C  0.87298118  0.25660736  0.57676021    -0.30700
O1178       O  0.91642366  0.21065557  0.61826135    -0.22500
C1179       C  0.92611704  0.19388182  0.61039328    -0.02500
C1180       C  0.91730402  0.18658647  0.59169843    -0.16900
H1181       H  0.89412937  0.19518447  0.55460047     0.21100
H1182       H  0.89087009  0.24501241  0.61605639     0.19500
H1183       H  0.87205955  0.27144050  0.58518381     0.19400
H1184       H  0.92377220  0.17505699  0.58089536     0.15300
C1185       C  0.01264548  0.18113876  0.47862690     0.30700
C1186       C  0.01846098  0.19074983  0.49800167    -0.35600
C1187       C  0.01390945  0.17946264  0.51687295     0.16700
C1188       C  0.00388155  0.16016659  0.51683009     0.22500
C1189       C  0.99824399  0.15044716  0.49741869    -0.33800
C1190       C  0.00315261  0.16157347  0.47849128     0.16600
O1191       O  0.01548074  0.18893946  0.45919017    -0.25800
C1192       C  0.00796918  0.17410677  0.44610195     0.06400
C1193       C  0.00014218  0.15669317  0.45742035    -0.30700
O1194       O  0.00051027  0.15273905  0.53635903    -0.22500
C1195       C  0.00883880  0.16729110  0.54927486    -0.02500
C1196       C  0.01744248  0.18420428  0.53782914    -0.16900
H1197       H  0.02608819  0.20603174  0.49835292     0.21100
H1198       H  0.99054278  0.13520478  0.49707798     0.19500
H1199       H  0.99306034  0.14252927  0.45103780     0.19400
H1200       H  0.02475755  0.19830334  0.54410484     0.15300
C1201       C  0.23028812  0.25593171  0.51029514     0.30700
C1202       C  0.23904141  0.23892499  0.52170745    -0.35600
C1203       C  0.25566359  0.22799063  0.51193750     0.16700
C1204       C  0.26343414  0.23339882  0.49227737     0.22500
C1205       C  0.25457035  0.25044563  0.48077095    -0.33800
C1206       C  0.23774760  0.26135299  0.49051567     0.16600
O1207       O  0.21391792  0.26746994  0.51610422    -0.25800
C1208       C  0.21057394  0.28062267  0.49987281     0.06400
C1209       C  0.22498791  0.27745562  0.48345296    -0.30700
O1210       O  0.27829116  0.22011615  0.48571614    -0.22500
C1211       C  0.28007399  0.20602767  0.50146436    -0.02500
C1212       C  0.26619498  0.21018374  0.51801620    -0.16900
H1213       H  0.23288377  0.23413178  0.53696385     0.21100
H1214       H  0.26000059  0.25454419  0.46504623     0.19500
H1215       H  0.22551123  0.28534160  0.46822790     0.19400
H1216       H  0.26352429  0.20074765  0.53209634     0.15300
C1217       C  0.32759556  0.01624908  0.51189592     0.30700
C1218       C  0.32772193  0.99768034  0.52447445    -0.35600
C1219       C  0.32881111  0.97820280  0.51358479     0.16700
C1220       C  0.32995237  0.97712027  0.49182127     0.22500
C1221       C  0.32958020  0.99560564  0.47928884    -0.33800
C1222       C  0.32828686  0.01499115  0.49012913     0.16600
O1223       O  0.32675118  0.03612395  0.51866428    -0.25800
C1224       C  0.32676494  0.04782771  0.50095779     0.06400
C1225       C  0.32760247  0.03536512  0.48277792    -0.30700
O1226       O  0.33099283  0.95741972  0.48482565    -0.22500
C1227       C  0.33029972  0.94543260  0.50226237    -0.02500
C1228       C  0.32884490  0.95760357  0.52065938    -0.16900
H1229       H  0.32696784  0.99836064  0.54157188     0.21100
H1230       H  0.33021176  0.99491918  0.46218502     0.19500
H1231       H  0.32784162  0.04059725  0.46644499     0.19400
H1232       H  0.32788232  0.95207393  0.53686447     0.15300
C1233       C  0.23289249  0.08843763  0.38723251     0.30700
C1234       C  0.25201324  0.09836429  0.39148789    -0.35600
C1235       C  0.25328171  0.10882477  0.41086081     0.16700
C1236       C  0.23666906  0.11004687  0.42491856     0.22500
C1237       C  0.21704231  0.10137320  0.41996140    -0.33800
C1238       C  0.21593369  0.09035950  0.40081039     0.16600
O1239       O  0.23043007  0.07308432  0.37349815    -0.25800
C1240       C  0.21158894  0.06543080  0.37806116     0.06400
C1241       C  0.20169483  0.07566478  0.39465165    -0.30700
O1242       O  0.24268156  0.11597777  0.44397222    -0.22500
C1243       C  0.26331030  0.11847263  0.44196910    -0.02500
C1244       C  0.27066004  0.11468290  0.42165645    -0.16900
H1245       H  0.26577484  0.09562406  0.38181535     0.21100
H1246       H  0.20443230  0.10079879  0.43144429     0.19500
H1247       H  0.18763791  0.07075910  0.40299879     0.19400
H1248       H  0.28681697  0.11381304  0.41634183     0.15300
C1249       C  0.26876472  0.92962763  0.37955060     0.30700
C1250       C  0.28914726  0.92662050  0.38730493    -0.35600
C1251       C  0.29367664  0.90635440  0.39500017     0.16700
C1252       C  0.27907226  0.89013120  0.39491603     0.22500
C1253       C  0.25932155  0.89269369  0.38552257    -0.33800
C1254       C  0.25473567  0.91300785  0.37814002     0.16600
O1255       O  0.25973779  0.94807200  0.37624864    -0.25800
C1256       C  0.23984365  0.94305931  0.37232740     0.06400
C1257       C  0.23588865  0.92150931  0.37293095    -0.30700
O1258       O  0.28359506  0.87526067  0.40877817    -0.22500
C1259       C  0.30134125  0.88186229  0.41763118    -0.02500
C1260       C  0.30880944  0.90065051  0.40903372    -0.16900
H1261       H  0.29973725  0.93978142  0.38975778     0.21100
H1262       H  0.24733821  0.88058712  0.38662279     0.19500
H1263       H  0.22085954  0.91353259  0.37187077     0.19400
H1264       H  0.32098556  0.91076473  0.41542242     0.15300
C1265       C  0.06287921  0.08785126  0.35276323     0.30700
C1266       C  0.06958782  0.06975423  0.36361642    -0.35600
C1267       C  0.08710001  0.05944110  0.35519113     0.16700
C1268       C  0.09725830  0.06625498  0.33710742     0.22500
C1269       C  0.09024517  0.08420182  0.32592834    -0.33800
C1270       C  0.07280127  0.09474254  0.33456282     0.16600
O1271       O  0.04848309  0.10113018  0.35945358    -0.25800
C1272       C  0.04905873  0.11685049  0.34546541     0.06400
C1273       C  0.06374927  0.11367243  0.32942227    -0.30700
O1274       O  0.11456731  0.05536664  0.33334183    -0.22500
C1275       C  0.11540517  0.04144940  0.34923054    -0.02500
C1276       C  0.09865308  0.04323201  0.36320524    -0.16900
H1277       H  0.06238508  0.06476586  0.37834332     0.21100
H1278       H  0.09852223  0.09020183  0.31218467     0.19500
H1279       H  0.06811833  0.12438808  0.31676486     0.19400
H1280       H  0.09606149  0.03467025  0.37784904     0.15300
C1281       C  0.23742436  0.09822771  0.61861568     0.30700
C1282       C  0.23597838  0.11360798  0.60271980    -0.35600
C1283       C  0.25488874  0.11918743  0.59294030     0.16700
C1284       C  0.27411280  0.11130139  0.59949897     0.22500
C1285       C  0.27571040  0.09727130  0.61653150    -0.33800
C1286       C  0.25670399  0.09046404  0.62522015     0.16600
O1287       O  0.22184259  0.08567183  0.62393275    -0.25800
C1288       C  0.23121070  0.06968386  0.63369573     0.06400
C1289       C  0.25278889  0.07190046  0.63530968    -0.30700
O1290       O  0.28877492  0.11372053  0.58511018    -0.22500
C1291       C  0.27884927  0.12287981  0.56907159    -0.02500
C1292       C  0.25786516  0.12716654  0.57314517    -0.16900
H1293       H  0.22095961  0.11797320  0.59593868     0.21100
H1294       H  0.29036754  0.08936861  0.62014219     0.19500
H1295       H  0.26409141  0.05996606  0.63993097     0.19400
H1296       H  0.24598268  0.13253839  0.56209395     0.15300
C1297       C  0.23222326  0.93496585  0.57088734     0.30700
C1298       C  0.23407511  0.93213139  0.54902266    -0.35600
C1299       C  0.23786883  0.91143996  0.54240200     0.16700
C1300       C  0.23980106  0.89477144  0.55646797     0.22500
C1301       C  0.23670329  0.89745126  0.57824584    -0.33800
C1302       C  0.23302340  0.91815905  0.58483740     0.16600
O1303       O  0.23042555  0.95316602  0.58057002    -0.25800
C1304       C  0.22989469  0.94795408  0.60095527     0.06400
C1305       C  0.23117675  0.92636323  0.60462727    -0.30700
O1306       O  0.24913849  0.87842799  0.54791326    -0.22500
C1307       C  0.25293958  0.88450796  0.52813443    -0.02500
C1308       C  0.24557349  0.90463992  0.52358224    -0.16900
H1309       H  0.23422712  0.94536033  0.53811951     0.21100
H1310       H  0.23899415  0.88466777  0.58942874     0.19500
H1311       H  0.23064621  0.91801482  0.61960330     0.19400
H1312       H  0.24954742  0.91437534  0.51002444     0.15300
C1313       C  0.08598306  0.10848513  0.63688386     0.30700
C1314       C  0.09926799  0.09599837  0.62458413    -0.35600
C1315       C  0.11040817  0.08034790  0.63542204     0.16700
C1316       C  0.10904520  0.07729822  0.65703231     0.22500
C1317       C  0.09541602  0.08968692  0.66940377    -0.33800
C1318       C  0.08390808  0.10526011  0.65842018     0.16600
O1319       O  0.07377221  0.12360709  0.62966394    -0.25800
C1320       C  0.06347037  0.13021129  0.64665787     0.06400
C1321       C  0.06904622  0.11934564  0.66508326    -0.30700
O1322       O  0.12159721  0.06199886  0.66375310    -0.22500
C1323       C  0.13064640  0.05509043  0.64604879    -0.02500
C1324       C  0.12417208  0.06587494  0.62803821    -0.16900
H1325       H  0.10068130  0.09822463  0.60763233     0.21100
H1326       H  0.09382304  0.08730068  0.68631347     0.19500
H1327       H  0.06275214  0.12123626  0.68088359     0.19400
H1328       H  0.12932696  0.06368407  0.61185502     0.15300
C1329       C  0.18739235  0.99764131  0.47999160     0.30700
C1330       C  0.20035805  0.00116153  0.49778855    -0.35600
C1331       C  0.19060984  0.00051792  0.51784384     0.16700
C1332       C  0.16949030  0.99643750  0.52042068     0.22500
C1333       C  0.15645718  0.99277116  0.50252204    -0.33800
C1334       C  0.16621261  0.99368119  0.48231361     0.16600
O1335       O  0.19335702  0.99820795  0.45986156    -0.25800
C1336       C  0.17582958  0.99469757  0.44871402     0.06400
C1337       C  0.15838105  0.99173677  0.46198376    -0.30700
O1338       O  0.16371742  0.99689011  0.54073695    -0.22500
C1339       C  0.18139968  0.00148990  0.55137980    -0.02500
C1340       C  0.19856010  0.00380845  0.53775574    -0.16900
H1341       H  0.21695665  0.00451804  0.49608557     0.21100
H1342       H  0.13979774  0.98974022  0.50420566     0.19500
H1343       H  0.14226382  0.98880198  0.45734078     0.19400
H1344       H  0.21466486  0.00743733  0.54194207     0.15300
C1345       C  0.86380400  0.40504428  0.43761960     0.30700
C1346       C  0.87534135  0.42036753  0.42659804    -0.35600
C1347       C  0.86530176  0.42949905  0.40910892     0.16700
C1348       C  0.84500659  0.42449535  0.40315434     0.22500
C1349       C  0.83334615  0.40925151  0.41434775    -0.33800
C1350       C  0.84363219  0.39964770  0.43156968     0.16600
O1351       O  0.87116832  0.39278565  0.45277219    -0.25800
C1352       C  0.85563969  0.37919537  0.45643862     0.06400
C1353       C  0.83801604  0.38279101  0.44384051    -0.30700
O1354       O  0.83914524  0.43445171  0.38567943    -0.22500
C1355       C  0.85609787  0.44560289  0.38031603    -0.02500
C1356       C  0.87278627  0.44309287  0.39428071    -0.16900
H1357       H  0.89146281  0.42407770  0.43068133     0.21100
H1358       H  0.81776308  0.40448339  0.40936546     0.19500
H1359       H  0.82378194  0.37345291  0.44285123     0.19400
H1360       H  0.88829033  0.45013268  0.39344526     0.15300
C1361       C  0.14508342  0.41399805  0.43667386     0.30700
C1362       C  0.13532436  0.43274078  0.43009781    -0.35600
C1363       C  0.14523297  0.44380317  0.41363390     0.16700
C1364       C  0.16366918  0.43711104  0.40430536     0.22500
C1365       C  0.17366404  0.41846156  0.41117796    -0.33800
C1366       C  0.16358292  0.40720599  0.42755717     0.16600
O1367       O  0.13743425  0.40035225  0.45048549    -0.25800
C1368       C  0.15116888  0.38451594  0.45035662     0.06400
C1369       C  0.16784758  0.38794265  0.43643953    -0.30700
O1370       O  0.16865568  0.44851268  0.38740017    -0.22500
C1371       C  0.15317236  0.46262068  0.38596209    -0.02500
C1372       C  0.13829656  0.46043989  0.40194971    -0.16900
H1373       H  0.12039314  0.43774806  0.43658075     0.21100
H1374       H  0.18765871  0.41252156  0.40350117     0.19500
H1375       H  0.18072774  0.37741095  0.43278705     0.19400
H1376       H  0.12348900  0.46870723  0.40354570     0.15300
C1377       C  0.98081873  0.51084186  0.32987626     0.30700
C1378       C  0.99846360  0.52437131  0.32833401    -0.35600
C1379       C  0.01847637  0.51472379  0.32913739     0.16700
C1380       C  0.02096671  0.49322404  0.33153184     0.22500
C1381       C  0.00332519  0.47968496  0.33288940    -0.33800
C1382       C  0.98331863  0.48930492  0.33186726     0.16600
O1383       O  0.96072427  0.51650721  0.32931224    -0.25800
C1384       C  0.95001546  0.49835939  0.33076156     0.06400
C1385       C  0.96338055  0.48090630  0.33234243    -0.30700
O1386       O  0.04105073  0.48753313  0.33211151    -0.22500
C1387       C  0.05178286  0.50558752  0.32992343    -0.02500
C1388       C  0.03843081  0.52302104  0.32789767    -0.16900
H1389       H  0.99670538  0.54128264  0.32653132     0.21100
H1390       H  0.00508220  0.46275899  0.33453878     0.19500
H1391       H  0.95903360  0.46441867  0.33363519     0.19400
H1392       H  0.04279703  0.53943348  0.32587557     0.15300
C1393       C  0.10276916  0.41466287  0.26226554     0.30700
C1394       C  0.09901045  0.40475852  0.24286892    -0.35600
C1395       C  0.08031603  0.39314700  0.24156317     0.16700
C1396       C  0.06623189  0.39149256  0.25815840     0.22500
C1397       C  0.07069038  0.40017910  0.27794517    -0.33800
C1398       C  0.08939132  0.41170868  0.27927077     0.16600
O1399       O  0.11653934  0.42987645  0.26556074    -0.25800
C1400       C  0.11214802  0.43626543  0.28505675     0.06400
C1401       C  0.09573856  0.42524090  0.29447555    -0.30700
O1402       O  0.04787036  0.38394392  0.25221727    -0.22500
C1403       C  0.05049047  0.38026467  0.23173554    -0.02500
C1404       C  0.07042416  0.38528255  0.22431319    -0.16900
H1405       H  0.10881948  0.40764775  0.22916975     0.21100
H1406       H  0.05940472  0.39979150  0.29075196     0.19500
H1407       H  0.08785565  0.42868889  0.30925186     0.19400
H1408       H  0.07592400  0.38537898  0.20809516     0.15300
C1409       C  0.90411630  0.38440714  0.23553756     0.30700
C1410       C  0.89589119  0.38891819  0.25547961    -0.35600
C1411       C  0.88507404  0.40801210  0.25716947     0.16700
C1412       C  0.88197396  0.42159386  0.24025849     0.22500
C1413       C  0.88874475  0.41622935  0.21988149    -0.33800
C1414       C  0.90007269  0.39732160  0.21827780     0.16600
O1415       O  0.91983703  0.37137073  0.23218585    -0.25800
C1416       C  0.92554089  0.37559629  0.21245966     0.06400
C1417       C  0.91361096  0.39126495  0.20287388    -0.30700
O1418       O  0.87639378  0.44070119  0.24636724    -0.22500
C1419       C  0.87597247  0.43917774  0.26736000    -0.02500
C1420       C  0.88073864  0.41911884  0.27485344    -0.16900
H1421       H  0.90026843  0.37979400  0.26931535     0.21100
H1422       H  0.88784281  0.42734802  0.20685946     0.19500
H1423       H  0.91692928  0.39944412  0.18816179     0.19400
H1424       H  0.88328761  0.41420766  0.29109095     0.15300
C1425       C  0.01049240  0.26703047  0.23143168     0.30700
C1426       C  0.02380713  0.25440927  0.24421276    -0.35600
C1427       C  0.01392767  0.24056361  0.25876410     0.16700
C1428       C  0.99238318  0.23926615  0.26065706     0.22500
C1429       C  0.97908162  0.25166206  0.24767706    -0.33800
C1430       C  0.98894845  0.26543730  0.23309105     0.16600
O1431       O  0.01638434  0.28215305  0.21801917    -0.25800
C1432       C  0.99838521  0.29035274  0.21070703     0.06400
C1433       C  0.98082262  0.28037913  0.21954062    -0.30700
O1434       O  0.98645551  0.22639734  0.27622373    -0.22500
C1435       C  0.00440594  0.21903127  0.28447295    -0.02500
C1436       C  0.02201134  0.22736772  0.27409906    -0.16900
H1437       H  0.04074802  0.25578064  0.24335086     0.21100
H1438       H  0.96215171  0.25108566  0.24929730     0.19500
H1439       H  0.96444104  0.28441912  0.21727973     0.19400
H1440       H  0.03840410  0.22484679  0.27794982     0.15300
C1441       C  0.11031644  0.58722582  0.25195928     0.30700
C1442       C  0.09943820  0.60640606  0.25246903    -0.35600
C1443       C  0.08658894  0.61057490  0.23503919     0.16700
C1444       C  0.08517746  0.59709310  0.21793059     0.22500
C1445       C  0.09673937  0.57833598  0.21702130    -0.33800
C1446       C  0.10909969  0.57382803  0.23476019     0.16600
O1447       O  0.11858571  0.57799592  0.26858200    -0.25800
C1448       C  0.12266783  0.55851855  0.26206011     0.06400
C1449       C  0.11759912  0.55509155  0.24098962    -0.30700
O1450       O  0.06978073  0.60219741  0.20508773    -0.22500
C1451       C  0.06131993  0.61905368  0.21408410    -0.02500
C1452       C  0.07104017  0.62512158  0.23270759    -0.16900
H1453       H  0.09911640  0.61614830  0.26650898     0.21100
H1454       H  0.09446039  0.56699865  0.20444150     0.19500
H1455       H  0.11713836  0.54020067  0.23263132     0.19400
H1456       H  0.06624766  0.63726984  0.24370293     0.15300
C1457       C  0.89906245  0.59306409  0.27493937     0.30700
C1458       C  0.91495445  0.60828776  0.27575005    -0.35600
C1459       C  0.91995301  0.61796220  0.25651793     0.16700
C1460       C  0.90923444  0.61376117  0.23793622     0.22500
C1461       C  0.89274437  0.59910068  0.23732372    -0.33800
C1462       C  0.88850938  0.58858222  0.25634760     0.16600
O1463       O  0.89544432  0.57901022  0.28977604    -0.25800
C1464       C  0.88272453  0.56519853  0.28055860     0.06400
C1465       C  0.87760929  0.57038210  0.25982395    -0.30700
O1466       O  0.91915357  0.62103120  0.22120193    -0.22500
C1467       C  0.93650619  0.62956829  0.22912166    -0.02500
C1468       C  0.93779692  0.62837883  0.25098406    -0.16900
H1469       H  0.92450410  0.61044244  0.28976494     0.21100
H1470       H  0.88560013  0.59432421  0.22254182     0.19500
H1471       H  0.86890297  0.56107430  0.24845398     0.19400
H1472       H  0.95111879  0.63215263  0.26095897     0.15300
C1473       C  0.99194215  0.48288534  0.18324466     0.30700
C1474       C  0.99040105  0.50138652  0.19563339    -0.35600
C1475       C  0.99174725  0.52093703  0.18480427     0.16700
C1476       C  0.99439333  0.52231418  0.16319357     0.22500
C1477       C  0.99596969  0.50378022  0.15078956    -0.33800
C1478       C  0.99463088  0.48418075  0.16163456     0.16600
O1479       O  0.99115172  0.46302693  0.19018988    -0.25800
C1480       C  0.99334559  0.45115091  0.17283648     0.06400
C1481       C  0.99556068  0.46362440  0.15459585    -0.30700
O1482       O  0.99522060  0.54224686  0.15635387    -0.22500
C1483       C  0.99308937  0.55395787  0.17383492    -0.02500
C1484       C  0.99092849  0.54137320  0.19197137    -0.16900
H1485       H  0.98831293  0.50059901  0.21261826     0.21100
H1486       H  0.99810403  0.50457538  0.13381349     0.19500
H1487       H  0.99762202  0.45831172  0.13846766     0.19400
H1488       H  0.98903668  0.54656014  0.20816685     0.15300
C1489       C  0.23010251  0.49046575  0.25742261     0.30700
C1490       C  0.23963359  0.47961192  0.24054221    -0.35600
C1491       C  0.25737927  0.48918716  0.23125261     0.16700
C1492       C  0.26522509  0.50837593  0.23781026     0.22500
C1493       C  0.25588115  0.51910171  0.25509404    -0.33800
C1494       C  0.23818180  0.50931440  0.26467352     0.16600
O1495       O  0.21243981  0.48500453  0.26711486    -0.25800
C1496       C  0.20911124  0.50019554  0.28132885     0.06400
C1497       C  0.22476724  0.51576155  0.28055986    -0.30700
O1498       O  0.28095665  0.51514145  0.22556119    -0.22500
C1499       C  0.28340491  0.49986036  0.21113820    -0.02500
C1500       C  0.26913224  0.48335673  0.21414952    -0.16900
H1501       H  0.23322805  0.46493667  0.23459196     0.21100
H1502       H  0.26162899  0.53430921  0.26032928     0.19500
H1503       H  0.22536040  0.53039411  0.28934443     0.19400
H1504       H  0.26697159  0.46950375  0.20438339     0.15300
C1505       C  0.32402923  0.50953993  0.98130799     0.30700
C1506       C  0.31797553  0.52163378  0.99902272    -0.35600
C1507       C  0.32414710  0.51401736  0.01911926     0.16700
C1508       C  0.33593331  0.49594063  0.02171163     0.22500
C1509       C  0.34178051  0.48365353  0.00394951    -0.33800
C1510       C  0.33516779  0.49103597  0.98380500     0.16600
O1511       O  0.31972367  0.51379376  0.96116534    -0.25800
C1512       C  0.32780608  0.49762358  0.95034055     0.06400
C1513       C  0.33753847  0.48289595  0.96372542    -0.30700
O1514       O  0.33983303  0.49169842  0.04201931    -0.22500
C1515       C  0.33015192  0.50712804  0.05268627    -0.02500
C1516       C  0.32006015  0.52134438  0.03911153    -0.16900
H1517       H  0.30880275  0.53591837  0.99727007     0.21100
H1518       H  0.35061457  0.46916037  0.00573333     0.19500
H1519       H  0.34546634  0.46846534  0.95927958     0.19400
H1520       H  0.31078216  0.53499245  0.04340119     0.15300
C1521       C  0.26165475  0.61812071  0.08133445     0.30700
C1522       C  0.28205042  0.61222831  0.08702445    -0.35600
C1523       C  0.28432522  0.60326463  0.10716506     0.16700
C1524       C  0.26757958  0.60031799  0.12082431     0.22500
C1525       C  0.24746184  0.60781615  0.11575720    -0.33800
C1526       C  0.24517233  0.61657331  0.09549131     0.16600
O1527       O  0.25534645  0.62243860  0.06195491    -0.25800
C1528       C  0.23464262  0.62408667  0.06381980     0.06400
C1529       C  0.22740828  0.62094896  0.08433961    -0.30700
O1530       O  0.27148663  0.58569500  0.13519529    -0.22500
C1531       C  0.29101773  0.57960987  0.13098645    -0.02500
C1532       C  0.29993247  0.59047369  0.11413766    -0.16900
H1533       H  0.29471154  0.61213498  0.07558793     0.21100
H1534       H  0.23400945  0.60445307  0.12569877     0.19500
H1535       H  0.21128581  0.62003454  0.08974769     0.19400
H1536       H  0.31398393  0.58617800  0.10549332     0.15300
C1537       C  0.25386336  0.58642344  0.88816655     0.30700
C1538       C  0.23465843  0.59579667  0.89325194    -0.35600
C1539       C  0.23554372  0.61162778  0.90861825     0.16700
C1540       C  0.25411010  0.61776326  0.91829152     0.22500
C1541       C  0.27343404  0.60978239  0.91179314    -0.33800
C1542       C  0.27251498  0.59390054  0.89659657     0.16600
O1543       O  0.25609813  0.56790787  0.87898362    -0.25800
C1544       C  0.27642022  0.56385389  0.88137946     0.06400
C1545       C  0.28743470  0.57968603  0.89168613    -0.30700
O1546       O  0.25093694  0.62748034  0.93634268    -0.22500
C1547       C  0.23019750  0.62815325  0.93778401    -0.02500
C1548       C  0.21978246  0.61909514  0.92082143    -0.16900
H1549       H  0.21987048  0.58927500  0.88785033     0.21100
H1550       H  0.28783838  0.61347373  0.92013977     0.19500
H1551       H  0.30350417  0.57932670  0.89735839     0.19400
H1552       H  0.20321092  0.61532619  0.91965007     0.15300
C1553       C  0.09143836  0.64030604  0.06124570     0.30700
C1554       C  0.07201391  0.63166826  0.06721815    -0.35600
C1555       C  0.06253144  0.64064258  0.08507162     0.16700
C1556       C  0.07140875  0.65715402  0.09617691     0.22500
C1557       C  0.09066816  0.66604388  0.08996546    -0.33800
C1558       C  0.10026752  0.65691663  0.07224135     0.16600
O1559       O  0.10393856  0.63302273  0.04633470    -0.25800
C1560       C  0.12099129  0.64511578  0.04779441     0.06400
C1561       C  0.11953339  0.66036322  0.06352268    -0.30700
O1562       O  0.06078355  0.66180261  0.11347572    -0.22500
C1563       C  0.04491196  0.64808428  0.11344736    -0.02500
C1564       C  0.04515439  0.63461998  0.09608558    -0.16900
H1565       H  0.06526435  0.61820963  0.05913583     0.21100
H1566       H  0.09813918  0.67852044  0.09893635     0.19500
H1567       H  0.13136845  0.67161422  0.06849124     0.19400
H1568       H  0.03473094  0.62151111  0.09274212     0.15300
C1569       C  0.24431504  0.41843128  0.05768691     0.30700
C1570       C  0.24791614  0.43989322  0.06066205    -0.35600
C1571       C  0.25209765  0.44591839  0.08138186     0.16700
C1572       C  0.25344861  0.43174406  0.09800173     0.22500
C1573       C  0.24912567  0.41021947  0.09514258    -0.33800
C1574       C  0.24433761  0.40423894  0.07435771     0.16600
O1575       O  0.23900206  0.40978014  0.03972151    -0.25800
C1576       C  0.23516709  0.38986163  0.04484861     0.06400
C1577       C  0.23813977  0.38536154  0.06621368    -0.30700
O1578       O  0.26090964  0.44054913  0.11528122    -0.22500
C1579       C  0.26369712  0.46060838  0.10960598    -0.02500
C1580       C  0.25803672  0.46491163  0.08885681    -0.16900
H1581       H  0.24758800  0.45109717  0.04767880     0.21100
H1582       H  0.24982226  0.39894986  0.10804826     0.19500
H1583       H  0.23475885  0.37084021  0.07465767     0.19400
H1584       H  0.26071627  0.47923277  0.07981425     0.15300
C1585       C  0.23789322  0.41751789  0.88044014     0.30700
C1586       C  0.21778590  0.41096053  0.88659466    -0.35600
C1587       C  0.21674238  0.39155352  0.89728852     0.16700
C1588       C  0.23431276  0.37922511  0.90115419     0.22500
C1589       C  0.25402478  0.38489641  0.89331074    -0.33800
C1590       C  0.25515564  0.40456007  0.88333937     0.16600
O1591       O  0.24327655  0.43716045  0.87598107    -0.25800
C1592       C  0.26414252  0.43661339  0.87617124     0.06400
C1593       C  0.27233205  0.41670492  0.88014763    -0.30700
O1594       O  0.23152298  0.36601227  0.91700436    -0.22500
C1595       C  0.21191223  0.36953303  0.92304452    -0.02500
C1596       C  0.20178084  0.38483539  0.91105248    -0.16900
H1597       H  0.20451139  0.42162583  0.88604568     0.21100
H1598       H  0.26805159  0.37628777  0.89775846     0.19500
H1599       H  0.28858600  0.41241034  0.88287903     0.19400
H1600       H  0.18720598  0.39279090  0.91484307     0.15300
C1601       C  0.10018823  0.36669784  0.07085461     0.30700
C1602       C  0.08105791  0.37584818  0.07649920    -0.35600
C1603       C  0.07158764  0.36766597  0.09465909     0.16700
C1604       C  0.08029638  0.35158143  0.10659403     0.22500
C1605       C  0.09956453  0.34235985  0.10091118    -0.33800
C1606       C  0.10909694  0.35057154  0.08259479     0.16600
O1607       O  0.11156673  0.37206165  0.05440393    -0.25800
C1608       C  0.12804147  0.35926730  0.05544657     0.06400
C1609       C  0.12747036  0.34549364  0.07267804    -0.30700
O1610       O  0.06877622  0.34686033  0.12331507    -0.22500
C1611       C  0.05259821  0.36012620  0.12188689    -0.02500
C1612       C  0.05352096  0.37336514  0.10436542    -0.16900
H1613       H  0.07407997  0.38856046  0.06738057     0.21100
H1614       H  0.10665049  0.32980228  0.11015234     0.19500
H1615       H  0.13882708  0.33355661  0.07715497     0.19400
H1616       H  0.04267887  0.38572939  0.09973397     0.15300
C1617       C  0.18978561  0.47902818  0.99513381     0.30700
C1618       C  0.20278507  0.49713042  0.99561884    -0.35600
C1619       C  0.19258135  0.51688153  0.99691938     0.16700
C1620       C  0.17101164  0.51876881  0.99765384     0.22500
C1621       C  0.15799428  0.50063485  0.99720042    -0.33800
C1622       C  0.16821210  0.48084684  0.99596422     0.16600
O1623       O  0.19607822  0.45907426  0.99398496    -0.25800
C1624       C  0.17833441  0.44771951  0.99412312     0.06400
C1625       C  0.16049074  0.46054818  0.99538323    -0.30700
O1626       O  0.16480449  0.53878642  0.99881498    -0.22500
C1627       C  0.18264180  0.55002517  0.99888892    -0.02500
C1628       C  0.20039500  0.53708655  0.99770391    -0.16900
H1629       H  0.21974146  0.49589869  0.99504831     0.21100
H1630       H  0.14104095  0.50186295  0.99780867     0.19500
H1631       H  0.14419677  0.45562977  0.99582116     0.19400
H1632       H  0.21672839  0.54188995  0.99740732     0.15300
C1633       C  0.39471876  0.42068329  0.86222556     0.30700
C1634       C  0.40924689  0.40952305  0.87448023    -0.35600
C1635       C  0.42162409  0.39494492  0.86367294     0.16700
C1636       C  0.41972689  0.39114645  0.84225274     0.22500
C1637       C  0.40520642  0.40259876  0.82982306    -0.33800
C1638       C  0.39293737  0.41760940  0.84066646     0.16600
O1639       O  0.38142172  0.43472561  0.86945897    -0.25800
C1640       C  0.37099220  0.44115114  0.85240754     0.06400
C1641       C  0.37751322  0.43117563  0.83388590    -0.30700
O1642       O  0.43283682  0.37626980  0.83574237    -0.22500
C1643       C  0.44332970  0.37093174  0.85327007    -0.02500
C1644       C  0.43697700  0.38208432  0.87100391    -0.16900
H1645       H  0.41077078  0.41203084  0.89136661     0.21100
H1646       H  0.40358026  0.39999169  0.81296878     0.19500
H1647       H  0.37139270  0.43316262  0.81800662     0.19400
H1648       H  0.44271549  0.38068999  0.88709897     0.15300
C1649       C  0.41415623  0.38629440  0.14871043     0.30700
C1650       C  0.39661397  0.39426177  0.15975577    -0.35600
C1651       C  0.38670436  0.41203481  0.15067009     0.16700
C1652       C  0.39371875  0.42113584  0.13207210     0.22500
C1653       C  0.41094645  0.41311129  0.12102351    -0.33800
C1654       C  0.42077740  0.39556999  0.13006502     0.16600
O1655       O  0.42625975  0.37021262  0.15436166    -0.25800
C1656       C  0.44072706  0.36941648  0.13908501     0.06400
C1657       C  0.43797601  0.38479506  0.12360668    -0.30700
O1658       O  0.38299139  0.43801046  0.12669139    -0.22500
C1659       C  0.36869331  0.43995840  0.14186578    -0.02500
C1660       C  0.37008052  0.42414602  0.15726187    -0.16900
H1661       H  0.39129055  0.38732588  0.17450385     0.21100
H1662       H  0.41656042  0.42033703  0.10651645     0.19500
H1663       H  0.44742653  0.38771419  0.10963874     0.19400
H1664       H  0.36068096  0.42223220  0.17141962     0.15300
C1665       C  0.50201310  0.33279916  0.01685525     0.30700
C1666       C  0.50293342  0.34531642  0.99817572    -0.35600
C1667       C  0.50354960  0.33441072  0.97857729     0.16700
C1668       C  0.50339208  0.31267621  0.97749612     0.22500
C1669       C  0.50233672  0.30023387  0.99606867    -0.33800
C1670       C  0.50163251  0.31108733  0.01554070     0.16600
O1671       O  0.50151657  0.33954335  0.03685977    -0.25800
C1672       C  0.50070349  0.32185749  0.04859212     0.06400
C1673       C  0.50072462  0.30376210  0.03596856    -0.30700
O1674       O  0.50419087  0.30560983  0.95773338    -0.22500
C1675       C  0.50480077  0.32296215  0.94560404    -0.02500
C1676       C  0.50434755  0.34139718  0.95784822    -0.16900
H1677       H  0.50318086  0.36238800  0.99886105     0.21100
H1678       H  0.50210875  0.28315831  0.99538831     0.19500
H1679       H  0.50035387  0.28744594  0.04114246     0.19400
H1680       H  0.50453366  0.35758566  0.95229043     0.15300
C1681       C  0.40372479  0.21022085  0.10138371     0.30700
C1682       C  0.42459351  0.21061573  0.10841414    -0.35600
C1683       C  0.43105233  0.22922683  0.11828080     0.16700
C1684       C  0.41748555  0.24579342  0.12217989     0.22500
C1685       C  0.39630412  0.24491244  0.11622998    -0.33800
C1686       C  0.39012270  0.22679925  0.10525951     0.16600
O1687       O  0.39686205  0.19783343  0.08628368    -0.25800
C1688       C  0.37878311  0.20646413  0.08038176     0.06400
C1689       C  0.37356978  0.22434027  0.09180607    -0.30700
O1690       O  0.42746721  0.26308050  0.12768746    -0.22500
C1691       C  0.44761015  0.25766062  0.12693439    -0.02500
C1692       C  0.45086390  0.23674381  0.12140771    -0.16900
H1693       H  0.43575472  0.19863895  0.10368815     0.21100
H1694       H  0.38619800  0.25859941  0.11739538     0.19500
H1695       H  0.36146114  0.23579136  0.08814279     0.19400
H1696       H  0.46562576  0.22888048  0.11824182     0.15300
C1697       C  0.41516392  0.26421344  0.90405037     0.30700
C1698       C  0.39556354  0.25447761  0.90708243    -0.35600
C1699       C  0.38896258  0.25260076  0.92822851     0.16700
C1700       C  0.40056255  0.26042930  0.94500890     0.22500
C1701       C  0.41977253  0.27045275  0.94192596    -0.33800
C1702       C  0.42669911  0.27145596  0.92109180     0.16600
O1703       O  0.42544462  0.26623262  0.88598216    -0.25800
C1704       C  0.44385895  0.27414697  0.89203618     0.06400
C1705       C  0.44546420  0.27768337  0.91355673    -0.30700
O1706       O  0.39389731  0.25363869  0.96340432    -0.22500
C1707       C  0.37801527  0.24106178  0.95855495    -0.02500
C1708       C  0.37381006  0.24013600  0.93692820    -0.16900
H1709       H  0.38691503  0.24745474  0.89413405     0.21100
H1710       H  0.42954972  0.27534875  0.95505727     0.19500
H1711       H  0.45856042  0.28426427  0.92231070     0.19400
H1712       H  0.36333515  0.22943374  0.92873126     0.15300
C1713       C  0.23939747  0.26732370  0.99387929     0.30700
C1714       C  0.25219588  0.25342089  0.98224804    -0.35600
C1715       C  0.26621404  0.24073174  0.99400035     0.16700
C1716       C  0.26771486  0.24162512  0.01575900     0.22500
C1717       C  0.25502691  0.25569561  0.02740678    -0.33800
C1718       C  0.24091110  0.26833754  0.01563659     0.16600
O1719       O  0.22558971  0.28096716  0.98601699    -0.25800
C1720       C  0.21800328  0.29092735  0.00295653     0.06400
C1721       C  0.22708124  0.28368584  0.02179172    -0.30700
O1722       O  0.28226155  0.22859529  0.02341759    -0.22500
C1723       C  0.29016963  0.21910696  0.00630593    -0.02500
C1724       C  0.28075570  0.22621916  0.98762045    -0.16900
H1725       H  0.25141593  0.25266705  0.96514559     0.21100
H1726       H  0.25619335  0.25684860  0.04446345     0.19500
H1727       H  0.22435976  0.28940056  0.03768727     0.19400
H1728       H  0.28447920  0.22170102  0.97154200     0.15300
C1729       C  0.59165289  0.28576350  0.08766393     0.30700
C1730       C  0.59986082  0.28637168  0.06713880    -0.35600
C1731       C  0.61309539  0.26966926  0.06172975     0.16700
C1732       C  0.61849890  0.25393456  0.07599184     0.22500
C1733       C  0.61147536  0.25418979  0.09697126    -0.33800
C1734       C  0.59748331  0.27034083  0.10207336     0.16600
O1735       O  0.57490547  0.29611249  0.09375013    -0.25800
C1736       C  0.57006060  0.28735842  0.11220730     0.06400
C1737       C  0.58359074  0.27139025  0.11842681    -0.30700
O1738       O  0.62561122  0.23702332  0.06652843    -0.22500
C1739       C  0.62468595  0.24184939  0.04609563    -0.02500
C1740       C  0.61766903  0.26219376  0.04208928    -0.16900
H1741       H  0.59386979  0.29725940  0.05534488     0.21100
H1742       H  0.61413915  0.24095896  0.10753478     0.19500
H1743       H  0.58183698  0.26051005  0.13157062     0.19400
H1744       H  0.61306955  0.26892902  0.02700256     0.15300
C1745       C  0.61009684  0.23211333  0.90101393     0.30700
C1746       C  0.60876434  0.25172868  0.89083852    -0.35600
C1747       C  0.59211497  0.25408360  0.87655831     0.16700
C1748       C  0.57801034  0.23796722  0.87235763     0.22500
C1749       C  0.58045616  0.21783725  0.88116440    -0.33800
C1750       C  0.59673761  0.21567315  0.89583711     0.16600
O1751       O  0.62026871  0.22861865  0.91879797    -0.25800
C1752       C  0.61345935  0.20973601  0.92491812     0.06400
C1753       C  0.59920403  0.20067662  0.91103371    -0.30700
O1754       O  0.56034048  0.24502255  0.86426998    -0.22500
C1755       C  0.56330821  0.26570769  0.86285479    -0.02500
C1756       C  0.58295312  0.27224662  0.86971103    -0.16900
H1757       H  0.61806255  0.26508605  0.89599022     0.21100
H1758       H  0.56859524  0.20572521  0.87921168     0.19500
H1759       H  0.58988349  0.18653977  0.91337988     0.19400
H1760       H  0.58802328  0.28825012  0.87292554     0.15300
C1761       C  0.51758971  0.17936543  0.01222374     0.30700
C1762       C  0.49965419  0.19003714  0.01991204    -0.35600
C1763       C  0.47984128  0.18170585  0.01411622     0.16700
C1764       C  0.47771718  0.16381856  0.00192263     0.22500
C1765       C  0.49567364  0.15328423  0.99403791    -0.33800
C1766       C  0.51550208  0.16184884  0.99949976     0.16600
O1767       O  0.53758205  0.18462768  0.01545985    -0.25800
C1768       C  0.54864311  0.17048053  0.00441684     0.06400
C1769       C  0.53560129  0.15599193  0.99410299    -0.30700
O1770       O  0.45767655  0.15871847  0.99851020    -0.22500
C1771       C  0.44666202  0.17372660  0.00840722    -0.02500
C1772       C  0.45977470  0.18846166  0.01828678    -0.16900
H1773       H  0.50104167  0.20404586  0.02957913     0.21100
H1774       H  0.49428536  0.13946246  0.98410945     0.19500
H1775       H  0.54027339  0.14298997  0.98408482     0.19400
H1776       H  0.45514966  0.20220525  0.02728942     0.15300
C1777       C  0.44399828  0.85385218  0.41539669     0.30700
C1778       C  0.43593355  0.86419220  0.43315845    -0.35600
C1779       C  0.41947239  0.85391183  0.44368799     0.16700
C1780       C  0.41152918  0.83460888  0.43740454     0.22500
C1781       C  0.41998036  0.82399638  0.41986780    -0.33800
C1782       C  0.43631405  0.83444987  0.40911308     0.16600
O1783       O  0.45759530  0.86186941  0.40185737    -0.25800
C1784       C  0.45874313  0.84744776  0.38666509     0.06400
C1785       C  0.44591995  0.82997420  0.39036664    -0.30700
O1786       O  0.39406759  0.82951498  0.44756978    -0.22500
C1787       C  0.39085849  0.84580906  0.46042524    -0.02500
C1788       C  0.40632471  0.86126789  0.45882511    -0.16900
H1789       H  0.44113703  0.87986247  0.43757999     0.21100
H1790       H  0.41329788  0.80936447  0.41411198     0.19500
H1791       H  0.44311446  0.81660103  0.38010728     0.19400
H1792       H  0.40661031  0.87669679  0.46617270     0.15300
C1793       C  0.42119030  0.13232062  0.39298572     0.30700
C1794       C  0.41034143  0.12019339  0.40791342    -0.35600
C1795       C  0.39582306  0.13104289  0.42033710     0.16700
C1796       C  0.39223095  0.15247465  0.41852749     0.22500
C1797       C  0.40303644  0.16467152  0.40331547    -0.33800
C1798       C  0.41749241  0.15368591  0.39056364     0.16600
O1799       O  0.43573640  0.12524093  0.38012003    -0.25800
C1800       C  0.44139646  0.14212083  0.36897010     0.06400
C1801       C  0.43050054  0.16034396  0.37460998    -0.30700
O1802       O  0.37767740  0.15912582  0.43192643    -0.22500
C1803       C  0.37190104  0.14157737  0.44212951    -0.02500
C1804       C  0.38270541  0.12373847  0.43552635    -0.16900
H1805       H  0.41302527  0.10338868  0.40969440     0.21100
H1806       H  0.40030347  0.18145577  0.40148257     0.19500
H1807       H  0.43237297  0.17618122  0.36836354     0.19400
H1808       H  0.38092698  0.10759886  0.44099718     0.15300
C1809       C  0.51457770  0.25806123  0.22994395     0.30700
C1810       C  0.52705547  0.24384812  0.24181853    -0.35600
C1811       C  0.51641917  0.23091346  0.25662389     0.16700
C1812       C  0.49495909  0.23187166  0.25952473     0.22500
C1813       C  0.48253857  0.24616344  0.24778315    -0.33800
C1814       C  0.49314766  0.25906598  0.23300815     0.16600
O1815       O  0.52103099  0.27075483  0.21445267    -0.25800
C1816       C  0.50350125  0.28015121  0.20748195     0.06400
C1817       C  0.48570946  0.27339507  0.21853777    -0.30700
O1818       O  0.48803339  0.21746307  0.27313801    -0.22500
C1819       C  0.50526079  0.20706304  0.27927798    -0.02500
C1820       C  0.52340799  0.21487665  0.26950768    -0.16900
H1821       H  0.54383091  0.24255360  0.23928645     0.21100
H1822       H  0.46563331  0.24676565  0.24961400     0.19500
H1823       H  0.46949748  0.27777311  0.21572845     0.19400
H1824       H  0.53929545  0.20892182  0.27090833     0.15300
C1825       C  0.49218105  0.01757776  0.31433185     0.30700
C1826       C  0.49109876  0.99930585  0.30162436    -0.35600
C1827       C  0.49293507  0.97966264  0.31209796     0.16700
C1828       C  0.49546419  0.97798201  0.33370419     0.22500
C1829       C  0.49637542  0.99633513  0.34648554    -0.33800
C1830       C  0.49472937  0.01608016  0.33595227     0.16600
O1831       O  0.49180536  0.03742424  0.30753601    -0.25800
C1832       C  0.49416109  0.04915165  0.32493801     0.06400
C1833       C  0.49599023  0.03660167  0.34316738    -0.30700
O1834       O  0.49731627  0.95797633  0.34008311    -0.22500
C1835       C  0.49606140  0.94657859  0.32229051    -0.02500
C1836       C  0.49327052  0.95941051  0.30444082    -0.16900
H1837       H  0.48937506  0.00035228  0.28460729     0.21100
H1838       H  0.49862185  0.99530631  0.36343765     0.19500
H1839       H  0.49848090  0.04180257  0.35927593     0.19400
H1840       H  0.49183523  0.95451354  0.28810267     0.15300
C1841       C  0.40821401  0.08683707  0.21334648     0.30700
C1842       C  0.42871156  0.09483498  0.21309801    -0.35600
C1843       C  0.43394687  0.10833045  0.22971637     0.16700
C1844       C  0.41968167  0.11424245  0.24507840     0.22500
C1845       C  0.39886600  0.10691589  0.24480269    -0.33800
C1846       C  0.39382554  0.09275491  0.22859892     0.16600
O1847       O  0.40192701  0.07038174  0.20252619    -0.25800
C1848       C  0.38330085  0.06574027  0.21073916     0.06400
C1849       C  0.37723417  0.07917245  0.22690945    -0.30700
O1850       O  0.42882598  0.12346443  0.26127379    -0.22500
C1851       C  0.44912965  0.12321075  0.25634924    -0.02500
C1852       C  0.45325716  0.11423716  0.23678083    -0.16900
H1853       H  0.44043484  0.08893147  0.20222171     0.21100
H1854       H  0.38813599  0.11008100  0.25768725     0.19500
H1855       H  0.36400514  0.07746406  0.23754764     0.19400
H1856       H  0.46838731  0.11040426  0.22997498     0.15300
C1857       C  0.38678713  0.92961108  0.26791975     0.30700
C1858       C  0.39942098  0.92622895  0.28566686    -0.35600
C1859       C  0.40713598  0.90573211  0.28814988     0.16700
C1860       C  0.40261493  0.88952588  0.27421181     0.22500
C1861       C  0.38873631  0.89257991  0.25729949    -0.33800
C1862       C  0.38120580  0.91318088  0.25467129     0.16600
O1863       O  0.38237262  0.94823569  0.25979784    -0.25800
C1864       C  0.37358915  0.94362370  0.24134304     0.06400
C1865       C  0.37201745  0.92210658  0.23749159    -0.30700
O1866       O  0.41574403  0.87354203  0.27613451    -0.22500
C1867       C  0.42834846  0.87953812  0.29173343    -0.02500
C1868       C  0.42358252  0.89917390  0.29996902    -0.16900
H1869       H  0.40498936  0.93919001  0.29529681     0.21100
H1870       H  0.38612384  0.88048952  0.24551799     0.19500
H1871       H  0.36739492  0.91437031  0.22295225     0.19400
H1872       H  0.43292969  0.90851237  0.31080781     0.15300
C1873       C  0.33683014  0.06534443  0.09820110     0.30700
C1874       C  0.32669916  0.08371939  0.09104557    -0.35600
C1875       C  0.33496295  0.09296547  0.07261655     0.16700
C1876       C  0.35195501  0.08462048  0.06193391     0.22500
C1877       C  0.36176524  0.06603484  0.06880742    -0.33800
C1878       C  0.35361866  0.05690737  0.08727439     0.16600
O1879       O  0.33336439  0.05553532  0.11633807    -0.25800
C1880       C  0.34813056  0.04067056  0.11696559     0.06400
C1881       C  0.36104905  0.04068979  0.09922555    -0.30700
O1882       O  0.35872087  0.09708917  0.04666910    -0.22500
C1883       C  0.34583929  0.11358356  0.04742638    -0.02500
C1884       C  0.33061079  0.11182583  0.06314590    -0.16900
H1885       H  0.31406847  0.09097333  0.09989757     0.21100
H1886       H  0.37559591  0.05983508  0.06102259     0.19500
H1887       H  0.37479757  0.03107369  0.09626387     0.19400
H1888       H  0.31916688  0.12349524  0.06798580     0.15300
C1889       C  0.26429539  0.00511608  0.23813025     0.30700
C1890       C  0.25052708  0.01740764  0.25060370    -0.35600
C1891       C  0.23685759  0.00632578  0.26438230     0.16700
C1892       C  0.23673066  0.98459818  0.26585765     0.22500
C1893       C  0.25036440  0.97231200  0.25327272    -0.33800
C1894       C  0.26400025  0.98338417  0.23948340     0.16600
O1895       O  0.27916275  0.01222540  0.22509839    -0.25800
C1896       C  0.28855608  0.99481089  0.21778759     0.06400
C1897       C  0.27963343  0.97643624  0.22627719    -0.30700
O1898       O  0.22367186  0.97753692  0.28071462    -0.22500
C1899       C  0.21507817  0.99494511  0.28892748    -0.02500
C1900       C  0.22275252  0.01330777  0.27924273    -0.16900
H1901       H  0.25083216  0.03449349  0.25002458     0.21100
H1902       H  0.25072163  0.95526295  0.25455443     0.19500
H1903       H  0.28455620  0.96027872  0.22376212     0.19400
H1904       H  0.21921328  0.02951769  0.28328566     0.15300
C1905       C  0.58846893  0.07963696  0.28640916     0.30700
C1906       C  0.59523441  0.05861727  0.28597126    -0.35600
C1907       C  0.60987029  0.05366124  0.27028761     0.16700
C1908       C  0.61757078  0.06862199  0.25629060     0.22500
C1909       C  0.61178889  0.08992658  0.25761548    -0.33800
C1910       C  0.59677512  0.09477590  0.27298283     0.16600
O1911       O  0.57149104  0.08625074  0.29606733    -0.25800
C1912       C  0.56906094  0.10587593  0.28905085     0.06400
C1913       C  0.58442825  0.11226831  0.27485877    -0.30700
O1914       O  0.62631333  0.05998112  0.23965097    -0.22500
C1915       C  0.62435155  0.03935167  0.24303286    -0.02500
C1916       C  0.61476165  0.03440143  0.26212166    -0.16900
H1917       H  0.58762471  0.04650012  0.29536825     0.21100
H1918       H  0.61655541  0.10131995  0.24573650     0.19500
H1919       H  0.58484731  0.12655719  0.26540575     0.19400
H1920       H  0.60898798  0.01914232  0.26730021     0.15300
C1921       C  0.58793250  0.89914859  0.20761267     0.30700
C1922       C  0.56775256  0.89045907  0.20903593    -0.35600
C1923       C  0.56329605  0.87950355  0.22773223     0.16700
C1924       C  0.57816771  0.87612479  0.24336226     0.22500
C1925       C  0.59869192  0.88386876  0.24142289    -0.33800
C1926       C  0.60273532  0.89603993  0.22337360     0.16600
O1927       O  0.59304001  0.91468523  0.19482172    -0.25800
C1928       C  0.61098670  0.92193770  0.20268019     0.06400
C1929       C  0.61803677  0.91076508  0.22022690    -0.30700
O1930       O  0.56972375  0.86963311  0.26119662    -0.22500
C1931       C  0.54926170  0.86928880  0.25710169    -0.02500
C1932       C  0.54428922  0.87494583  0.23646751    -0.16900
H1933       H  0.55552956  0.89462287  0.19785054     0.21100
H1934       H  0.60970370  0.88309571  0.25447033     0.19500
H1935       H  0.63089327  0.91474647  0.23072289     0.19400
H1936       H  0.52887185  0.87762750  0.22971087     0.15300
C1937       C  0.63497216  0.08408003  0.11227977     0.30700
C1938       C  0.62356391  0.10054311  0.10292369    -0.35600
C1939       C  0.63329520  0.11082008  0.08589478     0.16700
C1940       C  0.65294787  0.10539614  0.07844051     0.22500
C1941       C  0.66444432  0.08888170  0.08789525    -0.33800
C1942       C  0.65467384  0.07853430  0.10502953     0.16600
O1943       O  0.62842419  0.07192886  0.12790452    -0.25800
C1944       C  0.64410279  0.05836421  0.13086245     0.06400
C1945       C  0.66092386  0.06173126  0.11711617    -0.30700
O1946       O  0.65870994  0.11700236  0.06194447    -0.22500
C1947       C  0.64248211  0.12998020  0.05894096    -0.02500
C1948       C  0.62628993  0.12677304  0.07339438    -0.16900
H1949       H  0.60801180  0.10485555  0.10836656     0.21100
H1950       H  0.67978629  0.08424997  0.08214064     0.19500
H1951       H  0.67532699  0.05273443  0.11581976     0.19400
H1952       H  0.61134055  0.13488522  0.07436582     0.15300
C1953       C  0.47897740  0.99211739  0.16310993     0.30700
C1954       C  0.49712849  0.98785909  0.15082139    -0.35600
C1955       C  0.51686971  0.99297766  0.15995135     0.16700
C1956       C  0.51863121  0.00202633  0.17968386     0.22500
C1957       C  0.50055960  0.00592035  0.19208208    -0.33800
C1958       C  0.48091060  0.00049581  0.18311881     0.16600
O1959       O  0.45895033  0.98891213  0.15763441    -0.25800
C1960       C  0.44780134  0.99502973  0.17453388     0.06400
C1961       C  0.46082785  0.00223685  0.19083932    -0.30700
O1962       O  0.53849623  0.00588662  0.18508630    -0.22500
C1963       C  0.54992451  0.99897956  0.16874403    -0.02500
C1964       C  0.53716984  0.99063718  0.15271286    -0.16900
H1965       H  0.49595715  0.98100963  0.13519553     0.21100
H1966       H  0.50173163  0.01272577  0.20772963     0.19500
H1967       H  0.45611243  0.00833939  0.20609768     0.19400
H1968       H  0.54215199  0.98384140  0.13784652     0.15300
C1969       C  0.60858160  0.84566039  0.42106775     0.30700
C1970       C  0.59649014  0.83332174  0.40708745    -0.35600
C1971       C  0.58363053  0.84457791  0.39280056     0.16700
C1972       C  0.58262996  0.86637709  0.39257450     0.22500
C1973       C  0.59489620  0.87859705  0.40615951    -0.33800
C1974       C  0.60774010  0.86743338  0.42018266     0.16600
O1975       O  0.62147995  0.83877891  0.43607928    -0.25800
C1976       C  0.62893710  0.85651784  0.44460516     0.06400
C1977       C  0.62090440  0.87468441  0.43526039    -0.30700
O1978       O  0.56869811  0.87374297  0.37907463    -0.22500
C1979       C  0.56078078  0.85653885  0.37016480    -0.02500
C1980       C  0.56956406  0.83787078  0.37789157    -0.16900
H1981       H  0.59685577  0.81622850  0.40749807     0.21100
H1982       H  0.59419007  0.89568886  0.40606469     0.19500
H1983       H  0.62422387  0.89100072  0.43915187     0.19400
H1984       H  0.56546769  0.82178698  0.37382487     0.15300
C1985       C  0.59397551  0.16461712  0.43106970     0.30700
C1986       C  0.58620771  0.17414782  0.41244263    -0.35600
C1987       C  0.56938448  0.16366989  0.40241241     0.16700
C1988       C  0.56068056  0.14530151  0.41038684     0.22500
C1989       C  0.56814327  0.13605652  0.42906780    -0.33800
C1990       C  0.58502168  0.14629619  0.43885723     0.16600
O1991       O  0.61134276  0.16985332  0.44143148    -0.25800
C1992       C  0.61337550  0.15461881  0.45593921     0.06400
C1993       C  0.59737898  0.13969885  0.45504881    -0.30700
O1994       O  0.54654556  0.13697168  0.39766743    -0.22500
C1995       C  0.54605125  0.15005954  0.38118926    -0.02500
C1996       C  0.55985382  0.16708042  0.38328264    -0.16900
H1997       H  0.59357005  0.18798588  0.40556359     0.21100
H1998       H  0.56203108  0.12115688  0.43488383     0.19500
H1999       H  0.59610426  0.12505618  0.46388095     0.19400
H2000       H  0.56317870  0.17946009  0.37189283     0.15300
C2001       C  0.76584099  0.26295042  0.50338181     0.30700
C2002       C  0.74805148  0.25414112  0.51360470    -0.35600
C2003       C  0.73752047  0.23762054  0.50288285     0.16700
C2004       C  0.74436733  0.23008863  0.48363476     0.22500
C2005       C  0.76179756  0.23913636  0.47327131    -0.33800
C2006       C  0.77202569  0.25580751  0.48376512     0.16600
O2007       O  0.77885975  0.27751988  0.51102759    -0.25800
C2008       C  0.79336802  0.28002917  0.49588754     0.06400
C2009       C  0.78972290  0.26693306  0.47855584    -0.30700
O2010       O  0.73379562  0.21321459  0.47738194    -0.22500
C2011       C  0.71944590  0.20995736  0.49244889    -0.02500
C2012       C  0.72098160  0.22479340  0.50873950    -0.16900
H2013       H  0.74312981  0.25937396  0.52912168     0.21100
H2014       H  0.76742808  0.23311867  0.45829312     0.19500
H2015       H  0.79940453  0.26505510  0.46459955     0.19400
H2016       H  0.71235379  0.22503520  0.52349949     0.15300
C2017       C  0.66531855  0.98197488  0.49428624     0.30700
C2018       C  0.66521834  0.00019403  0.48131187    -0.35600
C2019       C  0.66476966  0.01989631  0.49170340     0.16700
C2020       C  0.66471530  0.02165633  0.51344413     0.22500
C2021       C  0.66456378  0.00339110  0.52645238    -0.33800
C2022       C  0.66476076  0.98363574  0.51603129     0.16600
O2023       O  0.66618389  0.96206067  0.48780832    -0.25800
C2024       C  0.66594304  0.95054566  0.50559230     0.06400
C2025       C  0.66499840  0.96324427  0.52366185    -0.30700
O2026       O  0.66524323  0.04167745  0.51978963    -0.22500
C2027       C  0.66536335  0.05302982  0.50185829    -0.02500
C2028       C  0.66498483  0.04016615  0.48392725    -0.16900
H2029       H  0.66565655  0.99908816  0.46422504     0.21100
H2030       H  0.66450903  0.00449932  0.54354441     0.19500
H2031       H  0.66496931  0.95819276  0.54005196     0.19400
H2032       H  0.66547882  0.04505361  0.46749430     0.15300
C2033       C  0.73705714  0.07284290  0.37971841     0.30700
C2034       C  0.71729101  0.07668020  0.38848038    -0.35600
C2035       C  0.71539342  0.09546233  0.39985318     0.16700
C2036       C  0.73185854  0.10952353  0.40244876     0.22500
C2037       C  0.75107227  0.10651377  0.39218992    -0.33800
C2038       C  0.75299379  0.08768318  0.38086648     0.16600
O2039       O  0.74381216  0.05431335  0.37329823    -0.25800
C2040       C  0.76410409  0.05759425  0.36975594     0.06400
C2041       C  0.77062580  0.07809477  0.37373831    -0.30700
O2042       O  0.72877885  0.12253869  0.41834226    -0.22500
C2043       C  0.71001253  0.11695588  0.42560503    -0.02500
C2044       C  0.70069216  0.10067109  0.41434103    -0.16900
H2045       H  0.70514603  0.06469584  0.38872606     0.21100
H2046       H  0.76441692  0.11672536  0.39506986     0.19500
H2047       H  0.78655708  0.08412078  0.37411571     0.19400
H2048       H  0.68674033  0.09175446  0.41848750     0.15300
C2049       C  0.76234974  0.89543308  0.43725110     0.30700
C2050       C  0.78071982  0.90671298  0.43270896    -0.35600
C2051       C  0.78242364  0.91449640  0.41200629     0.16700
C2052       C  0.76721450  0.91124994  0.39668092     0.22500
C2053       C  0.74932658  0.89915519  0.40096174    -0.33800
C2054       C  0.74746798  0.89167791  0.42173828     0.16600
O2055       O  0.75559553  0.89046634  0.45636604    -0.25800
C2056       C  0.73619434  0.88353144  0.45293871     0.06400
C2057       C  0.73044121  0.88365200  0.43171922    -0.30700
O2058       O  0.76971307  0.92360641  0.38003665    -0.22500
C2059       C  0.78690596  0.93450444  0.38467637    -0.02500
C2060       C  0.79553946  0.92944510  0.40420350    -0.16900
H2061       H  0.79182550  0.91097804  0.44496664     0.21100
H2062       H  0.73669488  0.89760955  0.38957689     0.19500
H2063       H  0.71514835  0.88036803  0.42493175     0.19400
H2064       H  0.80800412  0.93761314  0.41253021     0.15300
C2065       C  0.89285723  0.08579012  0.34227672     0.30700
C2066       C  0.90003331  0.10492976  0.33338975    -0.35600
C2067       C  0.91865987  0.11325660  0.34212500     0.16700
C2068       C  0.92937894  0.10332408  0.35836599     0.22500
C2069       C  0.92236886  0.08427444  0.36704757    -0.33800
C2070       C  0.90388539  0.07608101  0.35842607     0.16600
O2071       O  0.87541082  0.07542889  0.33736730    -0.25800
C2072       C  0.87550601  0.05897636  0.35063006     0.06400
C2073       C  0.89288734  0.05865273  0.36395087    -0.30700
O2074       O  0.94604162  0.11388036  0.36459636    -0.22500
C2075       C  0.94620812  0.13090397  0.35226080    -0.02500
C2076       C  0.92956858  0.13142038  0.33787480    -0.16900
H2077       H  0.89154115  0.11292651  0.32084996     0.21100
H2078       H  0.93060132  0.07652782  0.37992744     0.19500
H2079       H  0.89662683  0.04740041  0.37635284     0.19400
H2080       H  0.92596530  0.14345937  0.32621216     0.15300
C2081       C  0.73428332  0.00194809  0.23334819     0.30700
C2082       C  0.75069353  0.01437253  0.24208153    -0.35600
C2083       C  0.76197726  0.00550881  0.25934925     0.16700
C2084       C  0.75757890  0.98566154  0.26724170     0.22500
C2085       C  0.74117084  0.97338915  0.25866680    -0.33800
C2086       C  0.72979704  0.98231110  0.24169066     0.16600
O2087       O  0.72085477  0.00748965  0.21805433    -0.25800
C2088       C  0.70750554  0.99115583  0.21665354     0.06400
C2089       C  0.71241036  0.97519387  0.23114350    -0.30700
O2090       O  0.76946207  0.98057505  0.28376509    -0.22500
C2091       C  0.78176400  0.99739085  0.28689025    -0.02500
C2092       C  0.77767216  0.01346773  0.27212691    -0.16900
H2093       H  0.75406683  0.03009513  0.23620554     0.21100
H2094       H  0.73715744  0.95806975  0.26518525     0.19500
H2095       H  0.70379006  0.96072591  0.23410220     0.19400
H2096       H  0.78482739  0.02896683  0.27128126     0.15300
C2097       C  0.78959197  0.09576758  0.58974716     0.30700
C2098       C  0.78879785  0.10676335  0.57042144    -0.35600
C2099       C  0.76889286  0.11395927  0.56423870     0.16700
C2100       C  0.75129560  0.11117830  0.57675383     0.22500
C2101       C  0.75225868  0.10117684  0.59642642    -0.33800
C2102       C  0.77187080  0.09331554  0.60220001     0.16600
O2103       O  0.80479321  0.08291394  0.59550037    -0.25800
C2104       C  0.79653764  0.07204718  0.61150098     0.06400
C2105       C  0.77631934  0.07818244  0.61670819    -0.30700
O2106       O  0.73385853  0.11552644  0.56670847    -0.22500
C2107       C  0.74013571  0.12114265  0.54748324    -0.02500
C2108       C  0.76183592  0.12078507  0.54495022    -0.16900
H2109       H  0.80214019  0.10732917  0.55981681     0.21100
H2110       H  0.73819706  0.09750175  0.60535757     0.19500
H2111       H  0.76543387  0.07036949  0.62734357     0.19400
H2112       H  0.77081757  0.12324567  0.53060458     0.15300
C2113       C  0.71989500  0.90602263  0.60028658     0.30700
C2114       C  0.72100209  0.92560875  0.61043283    -0.35600
C2115       C  0.74090757  0.93159702  0.61758385     0.16700
C2116       C  0.75827658  0.91860793  0.61586624     0.22500
C2117       C  0.75691058  0.89852683  0.60686488    -0.33800
C2118       C  0.73730494  0.89305370  0.59860379     0.16600
O2119       O  0.70489482  0.90063442  0.58711810    -0.25800
C2120       C  0.71288436  0.88442357  0.57660198     0.06400
C2121       C  0.73281927  0.87865544  0.58333784    -0.30700
O2122       O  0.77593260  0.92879181  0.61903852    -0.22500
C2123       C  0.76988934  0.94850051  0.62262951    -0.02500
C2124       C  0.74826123  0.95121381  0.62233824    -0.16900
H2125       H  0.70802951  0.93664707  0.60993532     0.21100
H2126       H  0.77082038  0.88923316  0.60369730     0.19500
H2127       H  0.74356946  0.86773914  0.57586418     0.19400
H2128       H  0.73951206  0.96585220  0.62298162     0.15300
C2129       C  0.91457687  0.06009314  0.66809410     0.30700
C2130       C  0.92266254  0.07827872  0.67797087    -0.35600
C2131       C  0.94110661  0.08681792  0.66906409     0.16700
C2132       C  0.95088970  0.07789622  0.65175282     0.22500
C2133       C  0.94329687  0.05939762  0.64245110    -0.33800
C2134       C  0.92483377  0.05109800  0.65110621     0.16600
O2135       O  0.89575089  0.05172580  0.67120228    -0.25800
C2136       C  0.89408715  0.03734078  0.65594582     0.06400
C2137       C  0.91176442  0.03617561  0.64316910    -0.30700
O2138       O  0.96553617  0.09014224  0.64361967    -0.22500
C2139       C  0.96554241  0.10705070  0.65598665    -0.02500
C2140       C  0.95084399  0.10581140  0.67229914    -0.16900
H2141       H  0.91422262  0.08621281  0.69050704     0.21100
H2142       H  0.95023933  0.05300844  0.62820361     0.19500
H2143       H  0.91378174  0.02710991  0.62880946     0.19400
H2144       H  0.94641320  0.11806214  0.68333697     0.15300
C2145       C  0.83972200  0.00836385  0.47668201     0.30700
C2146       C  0.85070830  0.01572694  0.49478664    -0.35600
C2147       C  0.84314524  0.00900981  0.51485702     0.16700
C2148       C  0.82616720  0.99562695  0.51693574     0.22500
C2149       C  0.81500858  0.98858565  0.49891923    -0.33800
C2150       C  0.82231080  0.99559212  0.47895420     0.16600
O2151       O  0.84402479  0.01257863  0.45640986    -0.25800
C2152       C  0.82889074  0.00268288  0.44546010     0.06400
C2153       C  0.81496093  0.99196598  0.45884197    -0.30700
O2154       O  0.82200457  0.99083646  0.53702603    -0.22500
C2155       C  0.83630659  0.00146740  0.54832196    -0.02500
C2156       C  0.84977861  0.01321138  0.53522917    -0.16900
H2157       H  0.86421488  0.02603545  0.49333910     0.21100
H2158       H  0.80145526  0.97833581  0.50036998     0.19500
H2159       H  0.80144330  0.98259685  0.45433913     0.19400
H2160       H  0.86273342  0.02320993  0.54001913     0.15300
C2161       C  0.84049736  0.57089164  0.40163436     0.30700
C2162       C  0.83027682  0.58934280  0.40860426    -0.35600
C2163       C  0.84051111  0.60073869  0.42473698     0.16700
C2164       C  0.85933376  0.59421717  0.43346336     0.22500
C2165       C  0.86936583  0.57579836  0.42670628    -0.33800
C2166       C  0.85931493  0.56461977  0.41055277     0.16600
O2167       O  0.83510172  0.55900643  0.38527815    -0.25800
C2168       C  0.85075616  0.54508964  0.38383592     0.06400
C2169       C  0.86612516  0.54785319  0.39920556    -0.30700
O2170       O  0.86678411  0.60757355  0.44749622    -0.22500
C2171       C  0.85266423  0.62301709  0.44791093    -0.02500
C2172       C  0.83587068  0.61963794  0.43410340    -0.16900
H2173       H  0.81586347  0.59489125  0.40136509     0.21100
H2174       H  0.88445284  0.57097443  0.43302645     0.19500
H2175       H  0.88096493  0.53962222  0.40078433     0.19400
H2176       H  0.82251424  0.62979924  0.43109986     0.15300
C2177       C  0.73863672  0.76956450  0.49485562     0.30700
C2178       C  0.74965284  0.75507415  0.48197000    -0.35600
C2179       C  0.76511119  0.74250210  0.49205914     0.16700
C2180       C  0.76947047  0.74409496  0.51337740     0.22500
C2181       C  0.75864267  0.75869103  0.52618054    -0.33800
C2182       C  0.74323158  0.77121921  0.51611761     0.16600
O2183       O  0.72420360  0.78349450  0.48862246    -0.25800
C2184       C  0.71933887  0.79418070  0.50618906     0.06400
C2185       C  0.73098009  0.78729731  0.52363817    -0.30700
O2186       O  0.78496481  0.73141057  0.51945625    -0.22500
C2187       C  0.79076269  0.72135280  0.50183974    -0.02500
C2188       C  0.77891095  0.72775044  0.48428142    -0.16900
H2189       H  0.74663533  0.75392297  0.46514489     0.21100
H2190       H  0.76225661  0.76043884  0.54283487     0.19500
H2191       H  0.73103066  0.79384819  0.53944620     0.19400
H2192       H  0.78068203  0.72276698  0.46800642     0.15300
C2193       C  0.13411261  0.58264328  0.39639181     0.30700
C2194       C  0.12154493  0.59222291  0.41171166    -0.35600
C2195       C  0.13123233  0.60793506  0.42369512     0.16700
C2196       C  0.15181868  0.61418286  0.42068148     0.22500
C2197       C  0.16453158  0.60441626  0.40533572    -0.33800
C2198       C  0.15489486  0.58829064  0.39350551     0.16600
O2199       O  0.12801325  0.56764683  0.38350050    -0.25800
C2200       C  0.14510169  0.56322267  0.37232215     0.06400
C2201       C  0.16244562  0.57548322  0.37784262    -0.30700
O2202       O  0.15747007  0.62934317  0.43386166    -0.22500
C2203       C  0.14027891  0.63250318  0.44547249    -0.02500
C2204       C  0.12355298  0.61960284  0.43983675    -0.16900
H2205       H  0.10532911  0.58761982  0.41421009     0.21100
H2206       H  0.18078021  0.60892421  0.40293125     0.19500
H2207       H  0.17805093  0.57530313  0.37102517     0.19400
H2208       H  0.10797054  0.61891672  0.44670705     0.15300
C2209       C  0.22911309  0.74167108  0.48953415     0.30700
C2210       C  0.23797872  0.75714792  0.47625008    -0.35600
C2211       C  0.25519186  0.76843293  0.48437601     0.16700
C2212       C  0.26345945  0.76471666  0.50422146     0.22500
C2213       C  0.25443378  0.74919323  0.51767930    -0.33800
C2214       C  0.23693581  0.73793471  0.50956455     0.16600
O2215       O  0.21238503  0.73008967  0.48516871    -0.25800
C2216       C  0.20906557  0.71857631  0.50256525     0.06400
C2217       C  0.22390466  0.72285263  0.51839317    -0.30700
O2218       O  0.27905444  0.77799440  0.50883290    -0.22500
C2219       C  0.28067789  0.79038556  0.49167713    -0.02500
C2220       C  0.26607322  0.78511635  0.47611972    -0.16900
H2221       H  0.23151312  0.76054783  0.46074747     0.21100
H2222       H  0.26030048  0.74645279  0.53354333     0.19500
H2223       H  0.22463055  0.71628570  0.53422327     0.19400
H2224       H  0.26328197  0.79308055  0.46118012     0.15300
C2225       C  0.98030788  0.68986210  0.50370373     0.30700
C2226       C  0.99881540  0.70191523  0.50662338    -0.35600
C2227       C  0.01802723  0.69072426  0.50764680     0.16700
C2228       C  0.01911804  0.66907605  0.50583041     0.22500
C2229       C  0.00053622  0.65696622  0.50307166    -0.33800
C2230       C  0.98124962  0.66818441  0.50211494     0.16600
O2231       O  0.96075624  0.69721261  0.50229082    -0.25800
C2232       C  0.94868182  0.68006781  0.49979873     0.06400
C2233       C  0.96073685  0.66153395  0.49963493    -0.30700
O2234       O  0.03885541  0.66196369  0.50666335    -0.22500
C2235       C  0.05070928  0.67930582  0.50918273    -0.02500
C2236       C  0.03839098  0.69759278  0.50994822    -0.16900
H2237       H  0.99829009  0.71894302  0.50792388     0.21100
H2238       H  0.00107510  0.63995237  0.50164629     0.19500
H2239       H  0.95517766  0.64545981  0.49801553     0.19400
H2240       H  0.04373646  0.71374862  0.51152253     0.15300
C2241       C  0.05393244  0.74662666  0.41749690     0.30700
C2242       C  0.05844372  0.74535871  0.43902295    -0.35600
C2243       C  0.07959248  0.74329898  0.44415719     0.16700
C2244       C  0.09526343  0.74134177  0.42920551     0.22500
C2245       C  0.09081709  0.74305629  0.40749564    -0.33800
C2246       C  0.06957102  0.74611635  0.40233820     0.16600
O2247       O  0.03556235  0.75161046  0.40969441    -0.25800
C2248       C  0.03933959  0.75497500  0.38935753     0.06400
C2249       C  0.06021993  0.75155388  0.38369159    -0.30700
O2250       O  0.11351581  0.73654268  0.43782359    -0.22500
C2251       C  0.10936828  0.73625960  0.45848589    -0.02500
C2252       C  0.08863878  0.74083538  0.46328840    -0.16900
H2253       H  0.04632890  0.74657031  0.45097962     0.21100
H2254       H  0.10300498  0.74235320  0.39557770     0.19500
H2255       H  0.06781397  0.75515031  0.36877317     0.19400
H2256       H  0.08077099  0.73949756  0.47843854     0.15300
C2257       C  0.89453967  0.78214182  0.39335945     0.30700
C2258       C  0.88395944  0.78301722  0.41268735    -0.35600
C2259       C  0.87443726  0.76428243  0.41927676     0.16700
C2260       C  0.87390092  0.74630732  0.40688533     0.22500
C2261       C  0.88318012  0.74593325  0.38680683    -0.33800
C2262       C  0.89410763  0.76420526  0.38088960     0.16600
O2263       O  0.91005714  0.79482287  0.38835394    -0.25800
C2264       C  0.91973681  0.78503065  0.37266822     0.06400
C2265       C  0.91043612  0.76604847  0.36706463    -0.30700
O2266       O  0.86910025  0.72934017  0.41790905    -0.22500
C2267       C  0.86709955  0.73647771  0.43751283    -0.02500
C2268       C  0.86986622  0.75807904  0.43933116    -0.16900
H2269       H  0.88620125  0.79610665  0.42343340     0.21100
H2270       H  0.88481043  0.73133369  0.37810603     0.19500
H2271       H  0.91686659  0.75387482  0.35697889     0.19400
H2272       H  0.87099597  0.76731195  0.45368108     0.15300
C2273       C  0.08251498  0.88014618  0.35323181     0.30700
C2274       C  0.10104469  0.88730117  0.34337715    -0.35600
C2275       C  0.10930899  0.90644932  0.35098906     0.16700
C2276       C  0.09996277  0.91762372  0.36718249     0.22500
C2277       C  0.08161657  0.91048404  0.37702233    -0.33800
C2278       C  0.07340745  0.89150970  0.36941985     0.16600
O2279       O  0.07166492  0.86295160  0.34849604    -0.25800
C2280       C  0.05549152  0.86352276  0.36187768     0.06400
C2281       C  0.05588507  0.88088958  0.37524646    -0.30700
O2282       O  0.11017579  0.93501610  0.37192908    -0.22500
C2283       C  0.12634652  0.93516175  0.35864568    -0.02500
C2284       C  0.12668055  0.91777849  0.34518124    -0.16900
H2285       H  0.10840224  0.87865534  0.33062186     0.21100
H2286       H  0.07417823  0.91920430  0.38968789     0.19500
H2287       H  0.04464758  0.88523574  0.38734281     0.19400
H2288       H  0.13810972  0.91398561  0.33309175     0.15300
C2289       C  0.93750184  0.91005275  0.35331203     0.30700
C2290       C  0.93042322  0.92872633  0.36274809    -0.35600
C2291       C  0.91242219  0.93784768  0.35379202     0.16700
C2292       C  0.90206791  0.92933652  0.33659628     0.22500
C2293       C  0.90951474  0.91092257  0.32676023    -0.33800
C2294       C  0.92750039  0.90168194  0.33583046     0.16600
O2295       O  0.95236132  0.89758623  0.36080101    -0.25800
C2296       C  0.95205792  0.88103847  0.34789291     0.06400
C2297       C  0.93705342  0.88282136  0.33190467    -0.30700
O2298       O  0.88421063  0.93919645  0.33239476    -0.22500
C2299       C  0.88323304  0.95422301  0.34707753    -0.02500
C2300       C  0.90046058  0.95418831  0.36065471    -0.16900
H2301       H  0.93770498  0.93501959  0.37689252     0.21100
H2302       H  0.90118015  0.90363327  0.31373232     0.19500
H2303       H  0.93273445  0.87118341  0.32015499     0.19400
H2304       H  0.90309063  0.96393166  0.37446408     0.15300
C2305       C  0.00844211  0.75775110  0.26636180     0.30700
C2306       C  0.02077455  0.74399574  0.25396191    -0.35600
C2307       C  0.01008877  0.73226077  0.23831240     0.16700
C2308       C  0.98868764  0.73379981  0.23519329     0.22500
C2309       C  0.97639462  0.74761170  0.24751398    -0.33800
C2310       C  0.98709016  0.75946602  0.26301966     0.16600
O2311       O  0.01499472  0.76945028  0.28248068    -0.25800
C2312       C  0.99763954  0.77900726  0.28953414     0.06400
C2313       C  0.97983296  0.77333848  0.27791136    -0.30700
O2314       O  0.98171953  0.72057973  0.22052221    -0.22500
C2315       C  0.99888758  0.71047641  0.21384505    -0.02500
C2316       C  0.01700594  0.71717514  0.22443435    -0.16900
H2317       H  0.03750015  0.74225808  0.25659998     0.21100
H2318       H  0.95954192  0.74874380  0.24542671     0.19500
H2319       H  0.96370997  0.77805169  0.28063518     0.19400
H2320       H  0.03282933  0.71111875  0.22281796     0.15300
C2321       C  0.08441013  0.74154016  0.62512942     0.30700
C2322       C  0.08975395  0.72132304  0.61820015    -0.35600
C2323       C  0.10839428  0.71986514  0.60659691     0.16700
C2324       C  0.12095184  0.73719482  0.60220991     0.22500
C2325       C  0.11643428  0.75709160  0.61057547    -0.33800
C2326       C  0.09771931  0.75856532  0.62203604     0.16600
O2327       O  0.06552633  0.74733761  0.63120641    -0.25800
C2328       C  0.06701999  0.76817846  0.63248778     0.06400
C2329       C  0.08672245  0.77605491  0.62742799    -0.30700
O2330       O  0.13363314  0.73386516  0.58614136    -0.22500
C2331       C  0.12956897  0.71408715  0.58061889    -0.02500
C2332       C  0.11433148  0.70446962  0.59301664    -0.16900
H2333       H  0.07881515  0.70826045  0.61932013     0.21100
H2334       H  0.12533137  0.77097525  0.60605782     0.19500
H2335       H  0.09127646  0.79240211  0.62523008     0.19400
H2336       H  0.10611684  0.68982919  0.58982632     0.15300
C2337       C  0.92464059  0.74927491  0.61280469     0.30700
C2338       C  0.91840509  0.73016421  0.60385919    -0.35600
C2339       C  0.90210284  0.73148662  0.58913872     0.16700
C2340       C  0.89266873  0.75034143  0.58340633     0.22500
C2341       C  0.89798147  0.76926897  0.59339264    -0.33800
C2342       C  0.91420063  0.76792486  0.60829619     0.16600
O2343       O  0.94237672  0.75238815  0.62298358    -0.25800
C2344       C  0.94289712  0.77314317  0.62553281     0.06400
C2345       C  0.92562887  0.78360791  0.61718062    -0.30700
O2346       O  0.88091318  0.74851318  0.56634685    -0.22500
C2347       C  0.88249856  0.72816605  0.56171848    -0.02500
C2348       C  0.89517876  0.71677231  0.57539213    -0.16900
H2349       H  0.92701542  0.71566690  0.60657457     0.21100
H2350       H  0.89137640  0.78424828  0.58846169     0.19500
H2351       H  0.92348478  0.80046732  0.61521273     0.19400
H2352       H  0.90021923  0.70050331  0.57401141     0.15300
C2353       C  0.93550789  0.90359705  0.63773433     0.30700
C2354       C  0.92469818  0.91838218  0.62545719    -0.35600
C2355       C  0.90764655  0.92811812  0.63523206     0.16700
C2356       C  0.90181712  0.92413655  0.65592496     0.22500
C2357       C  0.91277534  0.90930936  0.66834822    -0.33800
C2358       C  0.92965595  0.89910036  0.65832854     0.16600
O2359       O  0.95078037  0.89148657  0.63095018    -0.25800
C2360       C  0.95479970  0.87886209  0.64725255     0.06400
C2361       C  0.94221816  0.88285207  0.66483851    -0.30700
O2362       O  0.88491627  0.93488952  0.66149189    -0.22500
C2363       C  0.87986764  0.94545894  0.64393845    -0.02500
C2364       C  0.89344647  0.94183153  0.62718879    -0.16900
H2365       H  0.92880556  0.92146905  0.60909515     0.21100
H2366       H  0.90803800  0.90548048  0.68437423     0.19500
H2367       H  0.94177519  0.87443097  0.67978445     0.19400
H2368       H  0.89288635  0.94838499  0.61133185     0.15300
C2369       C  0.08535704  0.89585283  0.65458035     0.30700
C2370       C  0.10399259  0.90257583  0.66447919    -0.35600
C2371       C  0.11315719  0.92105143  0.65625789     0.16700
C2372       C  0.10443066  0.93211513  0.63955327     0.22500
C2373       C  0.08586215  0.92544332  0.62970820    -0.33800
C2374       C  0.07681432  0.90697994  0.63782346     0.16600
O2375       O  0.07460050  0.87856472  0.65902857    -0.25800
C2376       C  0.05905592  0.87866452  0.64488479     0.06400
C2377       C  0.05964347  0.89598840  0.63131899    -0.30700
O2378       O  0.11588922  0.94842203  0.63380708    -0.22500
C2379       C  0.13224924  0.94790799  0.64691110    -0.02500
C2380       C  0.13144415  0.93122030  0.66130332    -0.16900
H2381       H  0.11107831  0.89377363  0.67736773     0.21100
H2382       H  0.07918506  0.93383234  0.61632563     0.19500
H2383       H  0.04923548  0.89964778  0.61823456     0.19400
H2384       H  0.14290885  0.92688046  0.67322470     0.15300
C2385       C  0.99575824  0.80977571  0.48184334     0.30700
C2386       C  0.99720685  0.79746711  0.50053490    -0.35600
C2387       C  0.99952067  0.80848168  0.51984817     0.16700
C2388       C  0.00028652  0.83020136  0.52083926     0.22500
C2389       C  0.99891400  0.84253956  0.50208783    -0.33800
C2390       C  0.99666991  0.83149843  0.48270969     0.16600
O2391       O  0.99365057  0.80263489  0.46216407    -0.25800
C2392       C  0.99323346  0.81995855  0.44993937     0.06400
C2393       C  0.99509183  0.83839478  0.46201970    -0.30700
O2394       O  0.00224687  0.83719895  0.54064922    -0.22500
C2395       C  0.00283972  0.81970710  0.55267756    -0.02500
C2396       C  0.00122244  0.80142171  0.54038716    -0.16900
H2397       H  0.99657952  0.78039512  0.50005900     0.21100
H2398       H  0.99954495  0.85960710  0.50256247     0.19500
H2399       H  0.99535906  0.85454805  0.45636562     0.19400
H2400       H  0.00108431  0.78519585  0.54584507     0.15300
C2401       C  0.58999717  0.43691286  0.85495177     0.30700
C2402       C  0.57332822  0.42707990  0.86549626    -0.35600
C2403       C  0.56537152  0.40879243  0.85612974     0.16700
C2404       C  0.57319794  0.40044667  0.83760252     0.22500
C2405       C  0.58983548  0.41057438  0.82674988    -0.33800
C2406       C  0.59781547  0.42915523  0.83614077     0.16600
O2407       O  0.60091455  0.45293582  0.86226923    -0.25800
C2408       C  0.61583979  0.45601674  0.84789928     0.06400
C2409       C  0.61468073  0.44176961  0.83110974    -0.30700
O2410       O  0.56394921  0.38231277  0.83260247    -0.22500
C2411       C  0.55002468  0.37930117  0.84816971    -0.02500
C2412       C  0.55030245  0.39535693  0.86309707    -0.16900
H2413       H  0.56745631  0.43288304  0.88047274     0.21100
H2414       H  0.59651284  0.40409132  0.81241858     0.19500
H2415       H  0.62568104  0.43982982  0.81819558     0.19400
H2416       H  0.54111299  0.39661764  0.87746332     0.15300
C2417       C  0.59637933  0.42858473  0.16293729     0.30700
C2418       C  0.58839092  0.40998927  0.17210052    -0.35600
C2419       C  0.57044470  0.40138926  0.16241424     0.16700
C2420       C  0.56094746  0.41050705  0.14496860     0.22500
C2421       C  0.56863191  0.42932522  0.13612506    -0.33800
C2422       C  0.58660900  0.43783139  0.14571773     0.16600
O2423       O  0.61430360  0.43796686  0.16783621    -0.25800
C2424       C  0.61593846  0.45345187  0.15360006     0.06400
C2425       C  0.59906551  0.45417094  0.13957765    -0.30700
O2426       O  0.54583125  0.39864996  0.13702848    -0.22500
C2427       C  0.54552070  0.38174036  0.14959599    -0.02500
C2428       C  0.56037318  0.38267288  0.16578203    -0.16900
H2429       H  0.59627899  0.40214186  0.18513207     0.21100
H2430       H  0.56176701  0.43622463  0.12201025     0.19500
H2431       H  0.59702970  0.46434204  0.12590446     0.19400
H2432       H  0.56415175  0.37065186  0.17741396     0.15300
C2433       C  0.73708526  0.49139733  0.24021005     0.30700
C2434       C  0.74773845  0.47965576  0.25602089    -0.35600
C2435       C  0.76382840  0.49028399  0.26723695     0.16700
C2436       C  0.76922957  0.51095281  0.26291110     0.22500
C2437       C  0.75838556  0.52275132  0.24743619    -0.33800
C2438       C  0.74222076  0.51223519  0.23645469     0.16600
O2439       O  0.72263059  0.48426637  0.22675705    -0.25800
C2440       C  0.71826036  0.50086429  0.21433248     0.06400
C2441       C  0.73000834  0.51866355  0.21982814    -0.30700
O2442       O  0.78609213  0.51717290  0.27350862    -0.22500
C2443       C  0.79144821  0.50053809  0.28537099    -0.02500
C2444       C  0.77808894  0.48330663  0.28209242    -0.16900
H2445       H  0.74421997  0.46316142  0.25888933     0.21100
H2446       H  0.76278772  0.53884942  0.24364803     0.19500
H2447       H  0.73035528  0.53386256  0.21191921     0.19400
H2448       H  0.77969576  0.46747008  0.28840053     0.15300
C2449       C  0.66383153  0.49336829  0.02366804     0.30700
C2450       C  0.65162842  0.48956483  0.00527592    -0.35600
C2451       C  0.66111942  0.49430419  0.98550469     0.16700
C2452       C  0.68108023  0.50266804  0.98396152     0.22500
C2453       C  0.69337809  0.50607044  0.00226887    -0.33800
C2454       C  0.68407647  0.50094906  0.02193152     0.16600
O2455       O  0.65811601  0.49029509  0.04376409    -0.25800
C2456       C  0.67510005  0.49565429  0.05511354     0.06400
C2457       C  0.69169382  0.50225829  0.04219635    -0.30700
O2458       O  0.68674133  0.50651377  0.96404916    -0.22500
C2459       C  0.67037173  0.50019530  0.95237366    -0.02500
C2460       C  0.65403298  0.49229309  0.96498603    -0.16900
H2461       H  0.63582096  0.48331058  0.00629273     0.21100
H2462       H  0.70919798  0.51229642  0.00125813     0.19500
H2463       H  0.70710379  0.50762772  0.04709912     0.19400
H2464       H  0.63899808  0.48619595  0.95978247     0.15300
C2465       C  0.74165001  0.40718549  0.11849320     0.30700
C2466       C  0.76162905  0.40221575  0.11080241    -0.35600
C2467       C  0.76214972  0.39230559  0.09110303     0.16700
C2468       C  0.74421943  0.38694714  0.07998282     0.22500
C2469       C  0.72419401  0.39065211  0.08832801    -0.33800
C2470       C  0.72363964  0.40110257  0.10782829     0.16600
O2471       O  0.73797269  0.42201753  0.13250396    -0.25800
C2472       C  0.71741681  0.42523260  0.13114372     0.06400
C2473       C  0.70761591  0.41231773  0.11641871    -0.30700
O2474       O  0.74829370  0.38157043  0.06028974    -0.22500
C2475       C  0.76903263  0.38360784  0.05888303    -0.02500
C2476       C  0.77850662  0.38994600  0.07760680    -0.16900
H2477       H  0.77574894  0.40824320  0.11821235     0.21100
H2478       H  0.71011474  0.38798766  0.07908085     0.19500
H2479       H  0.69195212  0.41415584  0.10994032     0.19400
H2480       H  0.79485042  0.39388461  0.08033586     0.15300
C2481       C  0.73673608  0.37651896  0.91382340     0.30700
C2482       C  0.71670267  0.38446335  0.90970052    -0.35600
C2483       C  0.71554026  0.39969271  0.89372647     0.16700
C2484       C  0.73276451  0.40578659  0.88175866     0.22500
C2485       C  0.75209966  0.39564815  0.88393336    -0.33800
C2486       C  0.75360419  0.38133393  0.90074703     0.16600
O2487       O  0.74278746  0.37027140  0.93272968    -0.25800
C2488       C  0.76355536  0.37112800  0.93170902     0.06400
C2489       C  0.77116906  0.37684982  0.91196077    -0.30700
O2490       O  0.73043556  0.42469116  0.87336483    -0.22500
C2491       C  0.71155756  0.43055027  0.87993006    -0.02500
C2492       C  0.70129812  0.41541475  0.89199136    -0.16900
H2493       H  0.70401450  0.38234149  0.92093436     0.21100
H2494       H  0.76599581  0.40164633  0.87603771     0.19500
H2495       H  0.78710967  0.38139543  0.90797709     0.19400
H2496       H  0.68694276  0.41725134  0.90100777     0.15300
C2497       C  0.90087005  0.36266351  0.05968984     0.30700
C2498       C  0.91652349  0.37469299  0.06948061    -0.35600
C2499       C  0.92821228  0.36441971  0.08515792     0.16700
C2500       C  0.92476449  0.34368610  0.09102841     0.22500
C2501       C  0.90930755  0.33140282  0.08080325    -0.33800
C2502       C  0.89757861  0.34172023  0.06490298     0.16600
O2503       O  0.88707543  0.36987662  0.04598271    -0.25800
C2504       C  0.87480180  0.35338742  0.04195506     0.06400
C2505       C  0.88065718  0.33526266  0.05310575    -0.30700
O2506       O  0.93645102  0.33800005  0.10745122    -0.22500
C2507       C  0.94758008  0.35532052  0.11186560    -0.02500
C2508       C  0.94314023  0.37212485  0.09838250    -0.16900
H2509       H  0.91887773  0.39122562  0.06569348     0.21100
H2510       H  0.90612970  0.31523160  0.08544233     0.19500
H2511       H  0.87284176  0.32006677  0.05345411     0.19400
H2512       H  0.94924433  0.38808942  0.09896625     0.15300
C2513       C  0.75810274  0.26528658  0.99824089     0.30700
C2514       C  0.75282854  0.24456080  0.00515778    -0.35600
C2515       C  0.73302550  0.23651441  0.99854914     0.16700
C2516       C  0.71957519  0.24824130  0.98606814     0.22500
C2517       C  0.72472412  0.26870696  0.97929948    -0.33800
C2518       C  0.74423035  0.27660866  0.98586092     0.16600
O2519       O  0.77530706  0.27647105  0.00293733    -0.25800
C2520       C  0.77212772  0.29515062  0.99340909     0.06400
C2521       C  0.75300635  0.29591443  0.98269973    -0.30700
O2522       O  0.70160529  0.23858769  0.98239480    -0.22500
C2523       C  0.70307662  0.22011123  0.99245138    -0.02500
C2524       C  0.72243292  0.21785808  0.00285765    -0.16900
H2525       H  0.76323260  0.23550650  0.01526652     0.21100
H2526       H  0.71396440  0.27807414  0.96985659     0.19500
H2527       H  0.74626592  0.30914960  0.97416087     0.19400
H2528       H  0.72752760  0.20493481  0.01287537     0.15300
C2529       C  0.75655046  0.59352405  0.06783955     0.30700
C2530       C  0.74883898  0.59312364  0.08862070    -0.35600
C2531       C  0.74840371  0.57321502  0.09839160     0.16700
C2532       C  0.75564323  0.55518572  0.08852805     0.22500
C2533       C  0.76336217  0.55562814  0.06787079    -0.33800
C2534       C  0.76298399  0.57527358  0.05788291     0.16600
O2535       O  0.75893788  0.61035560  0.05577552    -0.25800
C2536       C  0.76620664  0.60250029  0.03771612     0.06400
C2537       C  0.76886294  0.58078484  0.03806280    -0.30700
O2538       O  0.75104860  0.53794387  0.09903949    -0.22500
C2539       C  0.74040976  0.54480064  0.11568285    -0.02500
C2540       C  0.73861972  0.56669354  0.11642356    -0.16900
H2541       H  0.74287232  0.60714634  0.09628729     0.21100
H2542       H  0.76820074  0.54142100  0.05974636     0.19500
H2543       H  0.77601756  0.57085049  0.02615708     0.19400
H2544       H  0.72898384  0.57607462  0.12691611     0.15300
C2545       C  0.74217860  0.58926208  0.87750058     0.30700
C2546       C  0.74198376  0.60996323  0.88509093    -0.35600
C2547       C  0.76116870  0.61767112  0.89254751     0.16700
C2548       C  0.77956107  0.60607307  0.89150482     0.22500
C2549       C  0.78000313  0.58591527  0.88242782    -0.33800
C2550       C  0.76058196  0.57777132  0.87605843     0.16600
O2551       O  0.72542133  0.57732607  0.87583078    -0.25800
C2552       C  0.73306881  0.55799703  0.87341697     0.06400
C2553       C  0.75485611  0.55725925  0.87293941    -0.30700
O2554       O  0.79379015  0.61295937  0.90486178    -0.22500
C2555       C  0.78451804  0.62896950  0.91461092    -0.02500
C2556       C  0.76436090  0.63291640  0.90732176    -0.16900
H2557       H  0.72735938  0.61812135  0.88814857     0.21100
H2558       H  0.79382141  0.57600621  0.88350535     0.19500
H2559       H  0.76485041  0.54343172  0.87303214     0.19400
H2560       H  0.75248237  0.64258395  0.91479898     0.15300
C2561       C  0.91248407  0.65596871  0.10213202     0.30700
C2562       C  0.89263228  0.66382066  0.09599923    -0.35600
C2563       C  0.88449058  0.65592568  0.07682731     0.16700
C2564       C  0.89531505  0.64146679  0.06469897     0.22500
C2565       C  0.91499635  0.63378841  0.07071706    -0.33800
C2566       C  0.92298262  0.64150826  0.08973911     0.16600
O2567       O  0.92278621  0.66016595  0.11985364    -0.25800
C2568       C  0.93994111  0.64810884  0.11859924     0.06400
C2569       C  0.94082940  0.63627979  0.10018036    -0.30700
O2570       O  0.88489613  0.63560930  0.04779432    -0.22500
C2571       C  0.86702613  0.64633966  0.04882053    -0.02500
C2572       C  0.86578755  0.65936140  0.06655875    -0.16900
H2573       H  0.88399164  0.67490580  0.10566643     0.21100
H2574       H  0.92333556  0.62219094  0.06137976     0.19500
H2575       H  0.95264887  0.62493157  0.09547280     0.19400
H2576       H  0.85296552  0.66952200  0.07130206     0.15300
C2577       C  0.82089801  0.52114707  0.97493805     0.30700
C2578       C  0.81276795  0.50243530  0.96592637    -0.35600
C2579       C  0.81842536  0.48321503  0.97583159     0.16700
C2580       C  0.83092864  0.48243903  0.99365021     0.22500
C2581       C  0.83933558  0.50114781  0.00245251    -0.33800
C2582       C  0.83401116  0.52035664  0.99230321     0.16600
O2583       O  0.81680097  0.54080973  0.96882443    -0.25800
C2584       C  0.82779595  0.55296830  0.98211837     0.06400
C2585       C  0.83890767  0.54098446  0.99700383    -0.30700
O2586       O  0.83367024  0.46283461  0.00076526    -0.22500
C2587       C  0.82305194  0.45069302  0.98714908    -0.02500
C2588       C  0.81332985  0.46264145  0.97126031    -0.16900
H2589       H  0.80253005  0.50284557  0.95224012     0.21100
H2590       H  0.84923407  0.50077173  0.01638738     0.19500
H2591       H  0.84828906  0.54668344  0.01009729     0.19400
H2592       H  0.80364171  0.45698846  0.95837083     0.15300
C2593       C  0.60273305  0.58089638  0.85007254     0.30700
C2594       C  0.59318625  0.59770952  0.83906523    -0.35600
C2595       C  0.57591329  0.60726065  0.84909385     0.16700
C2596       C  0.56836104  0.60046464  0.86844010     0.22500
C2597       C  0.57795211  0.58379646  0.87948498    -0.33800
C2598       C  0.59541020  0.57455824  0.86966624     0.16600
O2599       O  0.61940116  0.57001175  0.84397371    -0.25800
C2600       C  0.62290253  0.55679846  0.86005606     0.06400
C2601       C  0.60852989  0.55900931  0.87647300    -0.30700
O2602       O  0.55225462  0.61173303  0.87506445    -0.22500
C2603       C  0.54949687  0.62615392  0.85991756    -0.02500
C2604       C  0.56378470  0.62414995  0.84333612    -0.16900
H2605       H  0.59903193  0.60319323  0.82391328     0.21100
H2606       H  0.57241814  0.57864392  0.89487390     0.19500
H2607       H  0.60792512  0.55040833  0.89131497     0.19400
H2608       H  0.56513002  0.63382091  0.82922820     0.15300
C2609       C  0.39761709  0.56618948  0.83929052     0.30700
C2610       C  0.40617428  0.58350658  0.82823286    -0.35600
C2611       C  0.42273341  0.59417240  0.83840897     0.16700
C2612       C  0.43036069  0.58803862  0.85797191     0.22500
C2613       C  0.42200413  0.57074562  0.86884922    -0.33800
C2614       C  0.40544339  0.56030506  0.85884371     0.16600
O2615       O  0.38080581  0.55510394  0.83390932    -0.25800
C2616       C  0.37801379  0.54213208  0.85032971     0.06400
C2617       C  0.39286872  0.54471347  0.86620084    -0.30700
O2618       O  0.44464291  0.60102207  0.86543098    -0.22500
C2619       C  0.44633659  0.61575370  0.85053510    -0.02500
C2620       C  0.43316614  0.61232733  0.83323852    -0.16900
H2621       H  0.39977573  0.58885348  0.81325337     0.21100
H2622       H  0.42740406  0.56633543  0.88452158     0.19500
H2623       H  0.39352732  0.53701562  0.88153349     0.19400
H2624       H  0.43085828  0.62230113  0.81947004     0.15300
C2625       C  0.58982732  0.61492917  0.15029418     0.30700
C2626       C  0.60679280  0.60613868  0.16163814    -0.35600
C2627       C  0.61641309  0.58840295  0.15239539     0.16700
C2628       C  0.60969934  0.58006066  0.13337686     0.22500
C2629       C  0.59306129  0.58892954  0.12201737    -0.33800
C2630       C  0.58350854  0.60645631  0.13121204     0.16600
O2631       O  0.57787074  0.63098308  0.15613020    -0.25800
C2632       C  0.56383232  0.63258051  0.14050764     0.06400
C2633       C  0.56670389  0.61776899  0.12463362    -0.30700
O2634       O  0.62013855  0.56307973  0.12790089    -0.22500
C2635       C  0.63390566  0.56036635  0.14346515    -0.02500
C2636       C  0.63247714  0.57570565  0.15918263    -0.16900
H2637       H  0.61186101  0.61240967  0.17673246     0.21100
H2638       H  0.58763682  0.58231698  0.10719019     0.19500
H2639       H  0.55743902  0.61541483  0.11043802     0.19400
H2640       H  0.64157946  0.57700880  0.17361056     0.15300
C2641       C  0.43623391  0.59647025  0.16131807     0.30700
C2642       C  0.41839657  0.58876136  0.17185559    -0.35600
C2643       C  0.40872464  0.57108381  0.16276113     0.16700
C2644       C  0.41613405  0.56161077  0.14458010     0.22500
C2645       C  0.43415716  0.56909542  0.13424764    -0.33800
C2646       C  0.44377979  0.58679761  0.14329800     0.16600
O2647       O  0.44626299  0.61416049  0.16564425    -0.25800
C2648       C  0.46041765  0.61578165  0.15023161     0.06400
C2649       C  0.45972529  0.59910660  0.13599162    -0.30700
O2650       O  0.40357674  0.54657308  0.13771696    -0.22500
C2651       C  0.38800323  0.54629640  0.15175172    -0.02500
C2652       C  0.39040016  0.56114442  0.16774101    -0.16900
H2653       H  0.41190003  0.59663504  0.18555926     0.21100
H2654       H  0.43967444  0.56224658  0.11958431     0.19500
H2655       H  0.46858568  0.59720329  0.12149192     0.19400
H2656       H  0.37957917  0.56492071  0.18039546     0.15300
C2657       C  0.48860077  0.76506459  0.26231533     0.30700
C2658       C  0.47656853  0.75239757  0.24851017    -0.35600
C2659       C  0.48785467  0.73854961  0.23526038     0.16700
C2660       C  0.50950518  0.73734113  0.23545856     0.22500
C2661       C  0.52149387  0.74990386  0.24930113    -0.33800
C2662       C  0.51023174  0.76363790  0.26259340     0.16600
O2663       O  0.48145186  0.77989332  0.27525527    -0.25800
C2664       C  0.49875418  0.78803122  0.28406477     0.06400
C2665       C  0.51706652  0.77843287  0.27670441    -0.30700
O2666       O  0.51692672  0.72431998  0.22089763    -0.22500
C2667       C  0.49982620  0.71680812  0.21126264    -0.02500
C2668       C  0.48128414  0.72514423  0.21961759    -0.16900
H2669       H  0.45960874  0.75360264  0.24778978     0.21100
H2670       H  0.53850372  0.74938715  0.24934328     0.19500
H2671       H  0.53317958  0.78244710  0.28050355     0.19400
H2672       H  0.46533618  0.72249582  0.21423990     0.15300
C2673       C  0.49177604  0.66738456  0.98155607     0.30700
C2674       C  0.49562301  0.65562938  0.00028831    -0.35600
C2675       C  0.49525857  0.66689307  0.01962552     0.16700
C2676       C  0.49141249  0.68829199  0.02050579     0.22500
C2677       C  0.48752057  0.70000837  0.00183083    -0.33800
C2678       C  0.48784035  0.68875828  0.98254964     0.16600
O2679       O  0.49169307  0.66017601  0.96174283    -0.25800
C2680       C  0.48754824  0.67717248  0.94975362     0.06400
C2681       C  0.48502445  0.69534117  0.96203203    -0.30700
O2682       O  0.49191976  0.69572089  0.04016515    -0.22500
C2683       C  0.49613322  0.67888695  0.05229881    -0.02500
C2684       C  0.49833660  0.66050621  0.04024350    -0.16900
H2685       H  0.49878088  0.63884818  0.99982603     0.21100
H2686       H  0.48451342  0.71682080  0.00228351     0.19500
H2687       H  0.48189991  0.71125717  0.95656560     0.19400
H2688       H  0.50174038  0.64470705  0.04586827     0.15300
C2689       C  0.56552734  0.77242323  0.11603948     0.30700
C2690       C  0.56798662  0.79208363  0.10621073    -0.35600
C2691       C  0.58773423  0.79600706  0.09729770     0.16700
C2692       C  0.60398669  0.78151564  0.09809609     0.22500
C2693       C  0.60201909  0.76257480  0.10939427    -0.33800
C2694       C  0.58220803  0.75858829  0.11811014     0.16600
O2695       O  0.54739420  0.76358866  0.12080853    -0.25800
C2696       C  0.55265020  0.74406794  0.12638463     0.06400
C2697       C  0.57408208  0.74015084  0.12540790    -0.30700
O2698       O  0.61836388  0.78518547  0.08358598    -0.22500
C2699       C  0.61139365  0.80232257  0.07366280    -0.02500
C2700       C  0.59282516  0.81018280  0.08200872    -0.16900
H2701       H  0.55471976  0.80239394  0.10333090     0.21100
H2702       H  0.61412067  0.75057997  0.10897688     0.19500
H2703       H  0.58209875  0.72518908  0.12734314     0.19400
H2704       H  0.58261714  0.82204912  0.07513270     0.15300
C2705       C  0.56873566  0.73790257  0.90828042     0.30700
C2706       C  0.59017052  0.73987230  0.91275680    -0.35600
C2707       C  0.59510208  0.74495118  0.93370665     0.16700
C2708       C  0.58001364  0.74754032  0.94920917     0.22500
C2709       C  0.55861677  0.74574137  0.94467782    -0.33800
C2710       C  0.55369697  0.74125034  0.92365744     0.16600
O2711       O  0.56050949  0.73197758  0.89015203    -0.25800
C2712       C  0.53998038  0.73217064  0.89394721     0.06400
C2713       C  0.53482073  0.73810718  0.91440937    -0.30700
O2714       O  0.58784135  0.75491359  0.96690574    -0.22500
C2715       C  0.60810525  0.75734097  0.96265296    -0.02500
C2716       C  0.61360583  0.75113623  0.94232816    -0.16900
H2717       H  0.60209463  0.73802119  0.90069953     0.21100
H2718       H  0.54663919  0.74845681  0.95651752     0.19500
H2719       H  0.51955347  0.73782043  0.92198486     0.19400
H2720       H  0.62836200  0.75374758  0.93419086     0.15300
C2721       C  0.66291542  0.91003332  0.05868852     0.30700
C2722       C  0.67482151  0.91934905  0.07505996    -0.35600
C2723       C  0.66484895  0.93568485  0.08638496     0.16700
C2724       C  0.64464520  0.94218561  0.08172818     0.22500
C2725       C  0.63306028  0.93328576  0.06526783    -0.33800
C2726       C  0.64291137  0.91714480  0.05412597     0.16600
O2727       O  0.66780319  0.89293122  0.04770212    -0.25800
C2728       C  0.65064399  0.88934254  0.03606798     0.06400
C2729       C  0.63484336  0.90404028  0.03938187    -0.30700
O2730       O  0.63716957  0.95557548  0.09556919    -0.22500
C2731       C  0.65269177  0.95813641  0.10935782    -0.02500
C2732       C  0.67052827  0.94630916  0.10442571    -0.16900
H2733       H  0.69021781  0.91350039  0.07942375     0.21100
H2734       H  0.61692495  0.93779955  0.06217904     0.19500
H2735       H  0.61901682  0.90408725  0.03303593     0.19400
H2736       H  0.68470791  0.94438510  0.11371750     0.15300
C2737       C  0.73060396  0.76243472  0.99390393     0.30700
C2738       C  0.74777423  0.75493355  0.98189735    -0.35600
C2739       C  0.75732271  0.73603589  0.98899086     0.16700
C2740       C  0.75054992  0.72545128  0.00686744     0.22500
C2741       C  0.73340162  0.73281978  0.01872867    -0.33800
C2742       C  0.72376939  0.75146358  0.01152061     0.16600
O2743       O  0.71853392  0.77904322  0.98956146    -0.25800
C2744       C  0.70371538  0.77857674  0.00455995     0.06400
C2745       C  0.70628173  0.76168692  0.01853202    -0.30700
O2746       O  0.76134908  0.70800969  0.01059016    -0.22500
C2747       C  0.77529993  0.70708708  0.99487293    -0.02500
C2748       C  0.77343833  0.72411342  0.98084751    -0.16900
H2749       H  0.75304677  0.76303869  0.96765782     0.21100
H2750       H  0.72761734  0.72426526  0.03250359     0.19500
H2751       H  0.69612097  0.75708809  0.03154572     0.19400
H2752       H  0.78248764  0.72714295  0.96661440     0.15300
C2753       C  0.39258826  0.75519870  0.08221445     0.30700
C2754       C  0.40158284  0.75736302  0.10227302    -0.35600
C2755       C  0.40993477  0.73894867  0.11108044     0.16700
C2756       C  0.40859966  0.71952947  0.10119453     0.22500
C2757       C  0.39903744  0.71730172  0.08135381    -0.33800
C2758       C  0.39170460  0.73593316  0.07205726     0.16600
O2759       O  0.38692592  0.77086649  0.06989222    -0.25800
C2760       C  0.38282044  0.76161975  0.05153707     0.06400
C2761       C  0.38548143  0.73989551  0.05179469    -0.30700
O2762       O  0.42135607  0.70558787  0.10962116    -0.22500
C2763       C  0.43115958  0.71619212  0.12476809    -0.02500
C2764       C  0.42455100  0.73694258  0.12663425    -0.16900
H2765       H  0.40395215  0.77269613  0.10941772     0.21100
H2766       H  0.39955108  0.70256741  0.07274107     0.19500
H2767       H  0.38376631  0.72886141  0.03886035     0.19400
H2768       H  0.43190084  0.74948424  0.13560858     0.15300
C2769       C  0.39767486  0.74158942  0.87301169     0.30700
C2770       C  0.38989970  0.76161913  0.87800977    -0.35600
C2771       C  0.37614314  0.76247695  0.89524935     0.16700
C2772       C  0.37008719  0.74464303  0.90644647     0.22500
C2773       C  0.37597568  0.72443436  0.89989896    -0.33800
C2774       C  0.39021618  0.72362658  0.88307646     0.16600
O2775       O  0.41561994  0.73822708  0.86323099    -0.25800
C2776       C  0.41931518  0.71787040  0.86657787     0.06400
C2777       C  0.40387526  0.70788134  0.87838658    -0.30700
O2778       O  0.36349591  0.74916154  0.92563977    -0.22500
C2779       C  0.36486335  0.77003793  0.92649180    -0.02500
C2780       C  0.37199855  0.77924702  0.90790533    -0.16900
H2781       H  0.39683987  0.77578998  0.87138277     0.21100
H2782       H  0.37262792  0.71064423  0.90950519     0.19500
H2783       H  0.40470154  0.69239642  0.88567969     0.19400
H2784       H  0.37691758  0.79546522  0.90554972     0.15300
C2785       C  0.35047393  0.88408250  0.08051742     0.30700
C2786       C  0.34010980  0.89093879  0.09893208    -0.35600
C2787       C  0.34795091  0.90953929  0.10815573     0.16700
C2788       C  0.36472377  0.92054424  0.09968228     0.22500
C2789       C  0.37498335  0.91376930  0.08136116    -0.33800
C2790       C  0.36726551  0.89523133  0.07228826     0.16600
O2791       O  0.34610449  0.86701284  0.06935619    -0.25800
C2792       C  0.36036317  0.86735100  0.05390433     0.06400
C2793       C  0.37390625  0.88453431  0.05499314    -0.30700
O2794       O  0.36986963  0.93717054  0.11091185    -0.22500
C2795       C  0.35632241  0.93697308  0.12691024    -0.02500
C2796       C  0.34219391  0.92015795  0.12606618    -0.16900
H2797       H  0.32703341  0.88228453  0.10569377     0.21100
H2798       H  0.38825711  0.92226046  0.07477042     0.19500
H2799       H  0.38680511  0.88854097  0.04453552     0.19400
H2800       H  0.32980569  0.91619439  0.13713548     0.15300
C2801       C  0.26726125  0.75895499  0.01153790     0.30700
C2802       C  0.25591878  0.74484415  0.02455659    -0.35600
C2803       C  0.24028711  0.73261225  0.01458410     0.16700
C2804       C  0.23608453  0.73411586  0.99321209     0.22500
C2805       C  0.24727939  0.74839771  0.98021881    -0.33800
C2806       C  0.26293413  0.76063453  0.99020187     0.16600
O2807       O  0.28350544  0.77073428  0.01732342    -0.25800
C2808       C  0.28975019  0.78026801  0.99950441     0.06400
C2809       C  0.27741273  0.77456109  0.98212456    -0.30700
O2810       O  0.22201936  0.72000851  0.98688346    -0.22500
C2811       C  0.21693484  0.70935076  0.00445111    -0.02500
C2812       C  0.22782821  0.71663026  0.02217769    -0.16900
H2813       H  0.25953258  0.74299912  0.04121092     0.21100
H2814       H  0.24448906  0.74936430  0.96333466     0.19500
H2815       H  0.27947952  0.77917876  0.96573792     0.19400
H2816       H  0.22755470  0.71022480  0.03809136     0.15300
C2817       C  0.48015398  0.83174878  0.98996096     0.30700
C2818       C  0.49781947  0.84434174  0.99518415    -0.35600
C2819       C  0.51791221  0.83597773  0.99046505     0.16700
C2820       C  0.52054797  0.81664279  0.98089990     0.22500
C2821       C  0.50286577  0.80393013  0.97587468    -0.33800
C2822       C  0.48274908  0.81217591  0.98087874     0.16600
O2823       O  0.46001360  0.83640596  0.99335176    -0.25800
C2824       C  0.44927630  0.81951800  0.98655142     0.06400
C2825       C  0.46278621  0.80393119  0.97868644    -0.30700
O2826       O  0.54076811  0.81183632  0.97804971    -0.22500
C2827       C  0.55142994  0.82823030  0.98610446    -0.02500
C2828       C  0.53784561  0.84361131  0.99415559    -0.16900
H2829       H  0.49603376  0.85956888  0.00268845     0.21100
H2830       H  0.50467429  0.78851721  0.96876180     0.19500
H2831       H  0.45851610  0.78865888  0.97234605     0.19400
H2832       H  0.54207817  0.85824382  0.00187839     0.15300
C2833       C  0.55366307  0.85420882  0.58324104     0.30700
C2834       C  0.56477368  0.86640316  0.56857768    -0.35600
C2835       C  0.58134925  0.85631779  0.55830057     0.16700
C2836       C  0.58659982  0.83543046  0.56172776     0.22500
C2837       C  0.57487785  0.82289555  0.57599355    -0.33800
C2838       C  0.55834627  0.83317334  0.58668696     0.16600
O2839       O  0.54031873  0.86175896  0.59711652    -0.25800
C2840       C  0.53604356  0.84546101  0.60967321     0.06400
C2841       C  0.54652481  0.82705582  0.60379841    -0.30700
O2842       O  0.60458281  0.83028617  0.55242927    -0.22500
C2843       C  0.61073327  0.84823944  0.54315417    -0.02500
C2844       C  0.59675781  0.86476248  0.54621311    -0.16900
H2845       H  0.56185126  0.88314656  0.56666711     0.21100
H2846       H  0.57935308  0.80682133  0.57972993     0.19500
H2847       H  0.54717166  0.81217895  0.61227203     0.19400
H2848       H  0.59851013  0.88112283  0.54145543     0.15300
C2849       C  0.37935011  0.85382151  0.58703386     0.30700
C2850       C  0.38768554  0.86457268  0.60439776    -0.35600
C2851       C  0.40572491  0.85578437  0.61344332     0.16700
C2852       C  0.41496815  0.83747573  0.60617761     0.22500
C2853       C  0.40643963  0.82650567  0.58882568    -0.33800
C2854       C  0.38838275  0.83547429  0.57956629     0.16600
O2855       O  0.36368043  0.86044855  0.57518093    -0.25800
C2856       C  0.36247715  0.84621874  0.55984912     0.06400
C2857       C  0.37738457  0.83018967  0.56176889    -0.30700
O2858       O  0.43258386  0.83296931  0.61640578    -0.22500
C2859       C  0.43452352  0.84872878  0.63021938    -0.02500
C2860       C  0.41822390  0.86326011  0.62906865    -0.16900
H2861       H  0.38105483  0.87929751  0.60992903     0.21100
H2862       H  0.41380148  0.81247605  0.58249651     0.19500
H2863       H  0.38043257  0.81730165  0.55098542     0.19400
H2864       H  0.41624762  0.87767420  0.63802540     0.15300
C2865       C  0.50952345  0.76796625  0.74177484     0.30700
C2866       C  0.51998444  0.75889024  0.75923658    -0.35600
C2867       C  0.50962935  0.74219873  0.76969917     0.16700
C2868       C  0.49008228  0.73498751  0.76366792     0.22500
C2869       C  0.47966826  0.74394511  0.74592420    -0.33800
C2870       C  0.49023523  0.76053425  0.73517095     0.16600
O2871       O  0.51579846  0.78474726  0.73092720    -0.25800
C2872       C  0.50069952  0.78810492  0.71661992     0.06400
C2873       C  0.48432857  0.77340683  0.71851145    -0.30700
O2874       O  0.48281016  0.72005121  0.77665791    -0.22500
C2875       C  0.49807796  0.71744904  0.79105685    -0.02500
C2876       C  0.51510465  0.73088214  0.78734909    -0.16900
H2877       H  0.53500716  0.76483815  0.76466226     0.21100
H2878       H  0.46419420  0.73867834  0.74112525     0.19500
H2879       H  0.46954114  0.77326023  0.71002392     0.19400
H2880       H  0.52917390  0.73266666  0.79683761     0.15300
C2881       C  0.58717737  0.14299058  0.61086662     0.30700
C2882       C  0.60484198  0.13269588  0.60305881    -0.35600
C2883       C  0.61540057  0.14301895  0.58675400     0.16700
C2884       C  0.60916476  0.16223752  0.57847785     0.22500
C2885       C  0.59155098  0.17286780  0.58668624    -0.33800
C2886       C  0.58082087  0.16241460  0.60315872     0.16600
O2887       O  0.57438177  0.13523790  0.62512103    -0.25800
C2888       C  0.55955453  0.14979822  0.62686516     0.06400
C2889       C  0.56268157  0.16723754  0.61369428    -0.30700
O2890       O  0.62042504  0.16776539  0.56174578    -0.22500
C2891       C  0.63389914  0.15180932  0.55960662    -0.02500
C2892       C  0.63155197  0.13617981  0.57485705    -0.16900
H2893       H  0.60954228  0.11724546  0.60875091     0.21100
H2894       H  0.58612059  0.18772520  0.58015239     0.19500
H2895       H  0.55274575  0.18097170  0.61169211     0.19400
H2896       H  0.63973478  0.12123393  0.57617838     0.15300
C2897       C  0.43592454  0.16004961  0.58619259     0.30700
C2898       C  0.41977092  0.17181796  0.57641622    -0.35600
C2899       C  0.40739927  0.16091751  0.56147642     0.16700
C2900       C  0.41084925  0.13996211  0.55659522     0.22500
C2901       C  0.42728247  0.12851394  0.56575058    -0.33800
C2902       C  0.43944923  0.13928796  0.58062263     0.16600
O2903       O  0.44733604  0.16581217  0.60277793    -0.25800
C2904       C  0.45816392  0.14843268  0.60769971     0.06400
C2905       C  0.45401858  0.13164661  0.59423686    -0.30700
O2906       O  0.39612077  0.13197799  0.54441959    -0.22500
C2907       C  0.38307354  0.14798658  0.54102103    -0.02500
C2908       C  0.38933735  0.16654758  0.55105060    -0.16900
H2909       H  0.41622992  0.18784650  0.58111127     0.21100
H2910       H  0.42952965  0.11187868  0.56255848     0.19500
H2911       H  0.45953899  0.11551591  0.59552750     0.19400
H2912       H  0.38102115  0.18143098  0.55180453     0.15300
C2913       C  0.48420385  0.22820782  0.73777447     0.30700
C2914       C  0.47299648  0.23840091  0.75405644    -0.35600
C2915       C  0.48376433  0.25432807  0.76524717     0.16700
C2916       C  0.50431836  0.25976883  0.76098226     0.22500
C2917       C  0.51548828  0.24969385  0.74448316    -0.33800
C2918       C  0.50457151  0.23394854  0.73300292     0.16600
O2919       O  0.47763382  0.21182741  0.72652667    -0.25800
C2920       C  0.49371441  0.20719457  0.71377261     0.06400
C2921       C  0.51093810  0.22050773  0.71717347    -0.30700
O2922       O  0.51165661  0.27428591  0.77429362    -0.22500
C2923       C  0.49547690  0.27843666  0.78716535    -0.02500
C2924       C  0.47775554  0.26639272  0.78213476    -0.16900
H2925       H  0.45708530  0.23384625  0.75809561     0.21100
H2926       H  0.53172556  0.25355256  0.74110576     0.19500
H2927       H  0.52643669  0.21935217  0.71021666     0.19400
H2928       H  0.46279401  0.26600564  0.79028576     0.15300
C2929       C  0.49061647  0.01766517  0.66571278     0.30700
C2930       C  0.47756801  0.99955357  0.66542703    -0.35600
C2931       C  0.48764961  0.97969760  0.66680773     0.16700
C2932       C  0.50917246  0.97772050  0.66824143     0.22500
C2933       C  0.52222264  0.99586430  0.66883460    -0.33800
C2934       C  0.51211865  0.01575561  0.66753137     0.16600
O2935       O  0.48442406  0.03769223  0.66449712    -0.25800
C2936       C  0.50215088  0.04904720  0.66562826     0.06400
C2937       C  0.51988460  0.03608659  0.66761397    -0.30700
O2938       O  0.51531468  0.95762352  0.66879241    -0.22500
C2939       C  0.49748051  0.94638931  0.66783456    -0.02500
C2940       C  0.47978334  0.95945052  0.66674329    -0.16900
H2941       H  0.46065544  0.00085221  0.66411960     0.21100
H2942       H  0.53913797  0.99456298  0.67010050     0.19500
H2943       H  0.53614649  0.04094280  0.66898375     0.19400
H2944       H  0.46346285  0.95469820  0.66576169     0.15300
C2945       C  0.38836458  0.06783201  0.74045394     0.30700
C2946       C  0.39386471  0.07297469  0.71963640    -0.35600
C2947       C  0.40480369  0.09201523  0.71700981     0.16700
C2948       C  0.40960293  0.10526330  0.73373375     0.22500
C2949       C  0.40246593  0.10102850  0.75415225    -0.33800
C2950       C  0.39208980  0.08180041  0.75682695     0.16600
O2951       O  0.38348723  0.04873423  0.74730244    -0.25800
C2952       C  0.38412350  0.05072732  0.76819937     0.06400
C2953       C  0.38887787  0.07100743  0.77493838    -0.30700
O2954       O  0.42507647  0.11830581  0.72933154    -0.22500
C2955       C  0.43001835  0.11357969  0.70955461    -0.02500
C2956       C  0.41751571  0.09786295  0.70082704    -0.16900
H2957       H  0.39246435  0.06161349  0.70695574     0.21100
H2958       H  0.40745326  0.11043010  0.76752554     0.19500
H2959       H  0.39203030  0.07635257  0.79089703     0.19400
H2960       H  0.42002126  0.08946425  0.68614236     0.15300
C2961       C  0.43126477  0.88073767  0.76494467     0.30700
C2962       C  0.42780283  0.88778238  0.78560265    -0.35600
C2963       C  0.40925757  0.89923689  0.78874235     0.16700
C2964       C  0.39493270  0.90309633  0.77266126     0.22500
C2965       C  0.39752998  0.89449650  0.75256965    -0.33800
C2966       C  0.41628427  0.88363097  0.74931428     0.16600
O2967       O  0.44963788  0.87506927  0.75720101    -0.25800
C2968       C  0.44619973  0.87439409  0.73649028     0.06400
C2969       C  0.42568156  0.87910191  0.73076356    -0.30700
O2970       O  0.38262249  0.91919660  0.77674041    -0.22500
C2971       C  0.38890202  0.92549563  0.79567448    -0.02500
C2972       C  0.40489713  0.91327205  0.80426668    -0.16900
H2973       H  0.44002580  0.88709155  0.79751193     0.21100
H2974       H  0.38728971  0.89877505  0.73955292     0.19500
H2975       H  0.41934576  0.88141323  0.71500555     0.19400
H2976       H  0.41441378  0.91674283  0.81804816     0.15300
C2977       C  0.36998778  0.08185755  0.89538186     0.30700
C2978       C  0.38174349  0.09428963  0.90924000    -0.35600
C2979       C  0.37048050  0.10934366  0.92062222     0.16700
C2980       C  0.34909532  0.11237640  0.91840786     0.22500
C2981       C  0.33725661  0.09989251  0.90434286    -0.33800
C2982       C  0.34854029  0.08442352  0.89314513     0.16600
O2983       O  0.37746360  0.06650914  0.88370347    -0.25800
C2984       C  0.36065691  0.05884063  0.87390498     0.06400
C2985       C  0.34211974  0.06928412  0.87915419    -0.30700
O2986       O  0.34179017  0.12672164  0.93170580    -0.22500
C2987       C  0.35879250  0.13258983  0.94256242    -0.02500
C2988       C  0.37699242  0.12236029  0.93622020    -0.16900
H2989       H  0.39847370  0.09198080  0.91142677     0.21100
H2990       H  0.32040729  0.10167737  0.90271856     0.19500
H2991       H  0.32637443  0.06629535  0.87337125     0.19400
H2992       H  0.39266952  0.12375292  0.94277848     0.15300
C2993       C  0.35370228  0.91091863  0.94208423     0.30700
C2994       C  0.36297790  0.93033043  0.93707544    -0.35600
C2995       C  0.35454162  0.94095589  0.91959540     0.16700
C2996       C  0.33778809  0.93327517  0.90800013     0.22500
C2997       C  0.32810231  0.91403556  0.91340191    -0.33800
C2998       C  0.33683597  0.90316310  0.93071255     0.16600
O2999       O  0.36112297  0.89716413  0.95580655    -0.25800
C3000       C  0.34889564  0.88034528  0.95331223     0.06400
C3001       C  0.33332587  0.88317926  0.93806632    -0.30700
O3002       O  0.33464412  0.94415021  0.89039883    -0.22500
C3003       C  0.34960444  0.95885905  0.89079347    -0.02500
C3004       C  0.36232525  0.95767377  0.90863211    -0.16900
H3005       H  0.37688783  0.93594185  0.94520227     0.21100
H3006       H  0.31573847  0.90724564  0.90379418     0.19500
H3007       H  0.32211288  0.87170761  0.93223791     0.19400
H3008       H  0.37657507  0.96646280  0.91188913     0.15300
C3009       C  0.27364244  0.00382014  0.76462118     0.30700
C3010       C  0.25697731  0.01535015  0.75512603    -0.35600
C3011       C  0.24646022  0.00565496  0.73786165     0.16700
C3012       C  0.25189545  0.98591919  0.73054079     0.22500
C3013       C  0.26852349  0.97451136  0.73991921    -0.33800
C3014       C  0.27907135  0.98421622  0.75697070     0.16600
O3015       O  0.28638429  0.01017160  0.78017932    -0.25800
C3016       C  0.30022227  0.99436960  0.78249114     0.06400
C3017       C  0.29634730  0.97797887  0.76827765    -0.30700
O3018       O  0.24067705  0.98006197  0.71380244    -0.22500
C3019       C  0.22767051  0.99621040  0.71005662    -0.02500
C3020       C  0.23066976  0.01262058  0.72461345    -0.16900
H3021       H  0.25280717  0.03100925  0.76049217     0.21100
H3022       H  0.27328653  0.95924004  0.73396371     0.19500
H3023       H  0.30552859  0.96377306  0.76604506     0.19400
H3024       H  0.22281062  0.02776942  0.72497011     0.15300
C3025       C  0.59635192  0.09257624  0.77886877     0.30700
C3026       C  0.57749696  0.10400994  0.77944015    -0.35600
C3027       C  0.57116955  0.11314678  0.76027028     0.16700
C3028       C  0.58316301  0.11181081  0.74208463     0.22500
C3029       C  0.60242604  0.10120149  0.74176232    -0.33800
C3030       C  0.60822215  0.09122696  0.76060691     0.16600
O3031       O  0.60234863  0.07886061  0.79328255    -0.25800
C3032       C  0.61792713  0.06840787  0.78404549     0.06400
C3033       C  0.62248973  0.07553835  0.76378982    -0.30700
O3034       O  0.57261224  0.11727658  0.72513103    -0.22500
C3035       C  0.55360851  0.12199737  0.73235620    -0.02500
C3036       C  0.55180055  0.12018132  0.75418872    -0.16900
H3037       H  0.56725242  0.10355254  0.79310896     0.21100
H3038       H  0.61088645  0.09860285  0.72714301     0.19500
H3039       H  0.63304386  0.06860915  0.75232099     0.19400
H3040       H  0.53767980  0.12115360  0.76368706     0.15300
C3041       C  0.60951372  0.91608015  0.75447408     0.30700
C3042       C  0.59837519  0.89705624  0.75516362    -0.35600
C3043       C  0.58996051  0.89027484  0.73596118     0.16700
C3044       C  0.59303957  0.90111204  0.71717109     0.22500
C3045       C  0.60500428  0.91973802  0.71635946    -0.33800
C3046       C  0.61271653  0.92699900  0.73577881     0.16600
O3047       O  0.61480877  0.92712712  0.77110746    -0.25800
C3048       C  0.62142651  0.94539972  0.76316290     0.06400
C3049       C  0.62076443  0.94626789  0.74119053    -0.30700
O3050       O  0.58009692  0.89481958  0.70225826    -0.22500
C3051       C  0.56843645  0.88010749  0.71167098    -0.02500
C3052       C  0.57414440  0.87625600  0.73252154    -0.16900
H3053       H  0.59446296  0.88944125  0.77001957     0.21100
H3054       H  0.60607369  0.92916473  0.70207254     0.19500
H3055       H  0.62390255  0.95965629  0.73096153     0.19400
H3056       H  0.56587626  0.86684464  0.74419955     0.15300
C3057       C  0.65315470  0.87854444  0.90529538     0.30700
C3058       C  0.64628491  0.88532316  0.88535736    -0.35600
C3059       C  0.65467529  0.90446626  0.87808915     0.16700
C3060       C  0.66909757  0.91618695  0.88944265     0.22500
C3061       C  0.67646979  0.90905344  0.90921547    -0.33800
C3062       C  0.66787112  0.88991616  0.91662766     0.16600
O3063       O  0.64537799  0.86248791  0.91609303    -0.25800
C3064       C  0.65534714  0.86337099  0.93456019     0.06400
C3065       C  0.66968443  0.87999629  0.93574763    -0.30700
O3066       O  0.67263790  0.93495267  0.88079647    -0.22500
C3067       C  0.66022232  0.93512782  0.86379575    -0.02500
C3068       C  0.64892700  0.91649597  0.86128446    -0.16900
H3069       H  0.63417559  0.87695024  0.87671175     0.21100
H3070       H  0.68712426  0.91840001  0.91873956     0.19500
H3071       H  0.67902217  0.88484812  0.94922398     0.19400
H3072       H  0.63690447  0.91301966  0.84964788     0.15300
C3073       C  0.64849213  0.05770008  0.91258801     0.30700
C3074       C  0.63631294  0.06629615  0.92882734    -0.35600
C3075       C  0.64466309  0.08400797  0.93894740     0.16700
C3076       C  0.66386593  0.09273898  0.93372303     0.22500
C3077       C  0.67630682  0.08387061  0.91752776    -0.33800
C3078       C  0.66783958  0.06603713  0.90721747     0.16600
O3079       O  0.64223878  0.04287083  0.89951829    -0.25800
C3080       C  0.65779036  0.04122148  0.88559930     0.06400
C3081       C  0.67432356  0.05514951  0.88963340    -0.30700
O3082       O  0.66756335  0.11050411  0.94416758    -0.22500
C3083       C  0.65040254  0.11303176  0.95605839    -0.02500
C3084       C  0.63575390  0.09698300  0.95340753    -0.16900
H3085       H  0.62079835  0.06027758  0.93252278     0.21100
H3086       H  0.69101572  0.09096589  0.91262406     0.19500
H3087       H  0.68801450  0.05820322  0.87992278     0.19400
H3088       H  0.62024024  0.09568347  0.96034381     0.15300
C3089       C  0.72971629  0.01347741  0.74947582     0.30700
C3090       C  0.73559077  0.02053820  0.72923585    -0.35600
C3091       C  0.75547395  0.01432658  0.72195704     0.16700
C3092       C  0.76901426  0.00190028  0.73360085     0.22500
C3093       C  0.76314936  0.99492545  0.75421095    -0.33800
C3094       C  0.74301248  0.00126746  0.76165615     0.16600
O3095       O  0.71120416  0.01650857  0.75841510    -0.25800
C3096       C  0.71223270  0.00640483  0.77694473     0.06400
C3097       C  0.73182889  0.99664816  0.77991151    -0.30700
O3098       O  0.78646198  0.99716315  0.72277453    -0.22500
C3099       C  0.78387638  0.00682890  0.70399432    -0.02500
C3100       C  0.76484466  0.01768048  0.70290587    -0.16900
H3101       H  0.72504135  0.02984046  0.71949475     0.21100
H3102       H  0.77331904  0.98485526  0.76357091     0.19500
H3103       H  0.73668341  0.98668392  0.79298595     0.19400
H3104       H  0.75841747  0.02630006  0.68954781     0.15300
C3105       C  0.52641773  0.98733341  0.83785968     0.30700
C3106       C  0.50789762  0.97530369  0.84092916    -0.35600
C3107       C  0.48854505  0.98614513  0.83894586     0.16700
C3108       C  0.48746325  0.00735386  0.83406036     0.22500
C3109       C  0.50595282  0.01939366  0.83112102    -0.33800
C3110       C  0.52526697  0.00861934  0.83334688     0.16600
O3111       O  0.54614573  0.98036425  0.83862368    -0.25800
C3112       C  0.55792561  0.99748992  0.83483306     0.06400
C3113       C  0.54563841  0.01549315  0.83147924    -0.30700
O3114       O  0.46779414  0.01426044  0.83256416    -0.22500
C3115       C  0.45587754  0.99732358  0.83670887    -0.02500
C3116       C  0.46807021  0.97937469  0.84080470    -0.16900
H3117       H  0.50852170  0.95859675  0.84455063     0.21100
H3118       H  0.50532894  0.03606182  0.82731246     0.19500
H3119       H  0.55096613  0.03131005  0.82770816     0.19400
H3120       H  0.46262493  0.96355338  0.84436267     0.15300
C3121       C  0.85711894  0.56915402  0.59373008     0.30700
C3122       C  0.86612612  0.57562288  0.57456387    -0.35600
C3123       C  0.85909504  0.59498913  0.56654963     0.16700
C3124       C  0.84413646  0.60715707  0.57659390     0.22500
C3125       C  0.83495319  0.60055863  0.59569583    -0.33800
C3126       C  0.84203803  0.58117115  0.60377327     0.16600
O3127       O  0.86242546  0.55229408  0.60470657    -0.25800
C3128       C  0.85049196  0.55339985  0.62193184     0.06400
C3129       C  0.83741675  0.57097918  0.62221754    -0.30700
O3130       O  0.84081028  0.62529112  0.56681875    -0.22500
C3131       C  0.85385644  0.62465843  0.55038330    -0.02500
C3132       C  0.86555597  0.60616951  0.54938656    -0.16900
H3133       H  0.87825691  0.56651410  0.56679218     0.21100
H3134       H  0.82355135  0.61014535  0.60398130     0.19500
H3135       H  0.82681379  0.57598302  0.63462016     0.19400
H3136       H  0.87757668  0.60192175  0.53804734     0.15300
C3137       C  0.86302099  0.39828912  0.57441117     0.30700
C3138       C  0.87140003  0.41783243  0.58015918    -0.35600
C3139       C  0.86161789  0.42780389  0.59715096     0.16700
C3140       C  0.84474185  0.41919074  0.60789102     0.22500
C3141       C  0.83622228  0.39957517  0.60200969    -0.33800
C3142       C  0.84604867  0.38953027  0.58488595     0.16600
O3143       O  0.87004692  0.38627279  0.55912744    -0.25800
C3144       C  0.85747425  0.36954010  0.55964383     0.06400
C3145       C  0.84216095  0.37059870  0.57534602    -0.30700
O3146       O  0.83894747  0.43085121  0.62414248    -0.22500
C3147       C  0.85228901  0.44706250  0.62361108    -0.02500
C3148       C  0.86664186  0.44601157  0.60710006    -0.16900
H3149       H  0.88484660  0.42464030  0.57212473     0.21100
H3150       H  0.82314401  0.39249829  0.61040660     0.19500
H3151       H  0.83002874  0.35918462  0.57911052     0.19400
H3152       H  0.87956787  0.45660774  0.60358265     0.15300
C3153       C  0.76640196  0.48851220  0.74298553     0.30700
C3154       C  0.75649329  0.47697310  0.75931288    -0.35600
C3155       C  0.74060913  0.48748481  0.77074414     0.16700
C3156       C  0.73462861  0.50797917  0.76644338     0.22500
C3157       C  0.74470745  0.51961625  0.75015791    -0.33800
C3158       C  0.76073885  0.50911432  0.73875544     0.16600
O3159       O  0.78226472  0.48198229  0.73103767    -0.25800
C3160       C  0.78705687  0.49859845  0.71885128     0.06400
C3161       C  0.77414328  0.51595654  0.72308776    -0.30700
O3162       O  0.72010036  0.51498468  0.77992171    -0.22500
C3163       C  0.71665775  0.49868950  0.79305532    -0.02500
C3164       C  0.72922093  0.48132683  0.78806520    -0.16900
H3165       H  0.76121412  0.46099794  0.76320796     0.21100
H3166       H  0.74069444  0.53592511  0.74692974     0.19500
H3167       H  0.77498321  0.53158489  0.71612678     0.19400
H3168       H  0.73048745  0.46655494  0.79666584     0.15300
C3169       C  0.14071129  0.58527261  0.56107280     0.30700
C3170       C  0.12903384  0.56866280  0.56973348    -0.35600
C3171       C  0.13907446  0.55680701  0.58545256     0.16700
C3172       C  0.15939876  0.56068831  0.59211217     0.22500
C3173       C  0.17130801  0.57713117  0.58304632    -0.33800
C3174       C  0.16108059  0.58932336  0.56748940     0.16600
O3175       O  0.13330764  0.59982703  0.54821164    -0.25800
C3176       C  0.14901376  0.61353160  0.54630382     0.06400
C3177       C  0.16682363  0.60777959  0.55780248    -0.30700
O3178       O  0.16453044  0.54936740  0.60900224    -0.22500
C3179       C  0.14719670  0.53825927  0.61310005    -0.02500
C3180       C  0.13100922  0.54217092  0.59883535    -0.16900
H3181       H  0.11271576  0.56608965  0.56554846     0.21100
H3182       H  0.18687811  0.58106373  0.58875052     0.19500
H3183       H  0.18128170  0.61658602  0.55982149     0.19400
H3184       H  0.11498120  0.53639178  0.59937833     0.15300
C3185       C  0.15609265  0.41864256  0.60619729     0.30700
C3186       C  0.16673524  0.40103981  0.59787139    -0.35600
C3187       C  0.15806765  0.39225712  0.57936899     0.16700
C3188       C  0.14049700  0.40062172  0.56960392     0.22500
C3189       C  0.13009007  0.41822811  0.57772610    -0.33800
C3190       C  0.13834754  0.42656730  0.59638706     0.16600
O3191       O  0.16029547  0.42847287  0.62415996    -0.25800
C3192       C  0.14475559  0.44246702  0.62582711     0.06400
C3193       C  0.13073881  0.44198566  0.60903478    -0.30700
O3194       O  0.13414855  0.38938275  0.55338551    -0.22500
C3195       C  0.14764734  0.37342830  0.55262827    -0.02500
C3196       C  0.16302013  0.37436888  0.56835300    -0.16900
H3197       H  0.18022277  0.39414418  0.60574376     0.21100
H3198       H  0.11589574  0.42438421  0.57052092     0.19500
H3199       H  0.11671826  0.45141209  0.60673350     0.19400
H3200       H  0.17545229  0.36315755  0.57163392     0.15300
C3201       C  0.24859207  0.51010845  0.77507856     0.30700
C3202       C  0.22844299  0.51711444  0.76947204    -0.35600
C3203       C  0.22100778  0.51118776  0.74946963     0.16700
C3204       C  0.23244786  0.49914240  0.73549840     0.22500
C3205       C  0.25302627  0.49222802  0.74109374    -0.33800
C3206       C  0.26060830  0.49821781  0.76143840     0.16600
O3207       O  0.25746281  0.51269986  0.79376358    -0.25800
C3208       C  0.27577850  0.50260043  0.79259563     0.06400
C3209       C  0.27872942  0.49331634  0.77265727    -0.30700
O3210       O  0.22137314  0.49447614  0.71807972    -0.22500
C3211       C  0.20265383  0.50376474  0.72119993    -0.02500
C3212       C  0.20186088  0.51432014  0.74048416    -0.16900
H3213       H  0.21882366  0.52604476  0.78037794     0.21100
H3214       H  0.26219942  0.48235240  0.73064413     0.19500
H3215       H  0.29161737  0.48338184  0.76764149     0.19400
H3216       H  0.18860119  0.52252074  0.74736646     0.15300
C3217       C  0.97599365  0.50419050  0.66492186     0.30700
C3218       C  0.99422510  0.51023876  0.65352946    -0.35600
C3219       C  0.01379565  0.50321751  0.66163655     0.16700
C3220       C  0.01529824  0.49067540  0.67945983     0.22500
C3221       C  0.99713720  0.48492899  0.69100101    -0.33800
C3222       C  0.97766134  0.49233350  0.68318879     0.16600
O3223       O  0.95611781  0.50892857  0.66022388    -0.25800
C3224       C  0.94482274  0.50035443  0.67595310     0.06400
C3225       C  0.95755248  0.48993686  0.69070113    -0.30700
O3226       O  0.03505779  0.48572440  0.68422671    -0.22500
C3227       C  0.04664920  0.49546469  0.66947887    -0.02500
C3228       C  0.03414835  0.50671818  0.65508424    -0.16900
H3229       H  0.99324202  0.51990443  0.63939830     0.21100
H3230       H  0.99813720  0.47545822  0.70526280     0.19500
H3231       H  0.95262624  0.48144229  0.70475408     0.19400
H3232       H  0.03933077  0.51618284  0.64176706     0.15300
C3233       C  0.09522669  0.39627210  0.78329858     0.30700
C3234       C  0.10438424  0.41642442  0.78390214    -0.35600
C3235       C  0.11280571  0.42380851  0.76480052     0.16700
C3236       C  0.11302344  0.41166275  0.74667212     0.22500
C3237       C  0.10503872  0.39109247  0.74640955    -0.33800
C3238       C  0.09574366  0.38409502  0.76517312     0.16600
O3239       O  0.08108299  0.38949340  0.79684523    -0.25800
C3240       C  0.07247308  0.37291563  0.78737443     0.06400
C3241       C  0.08113061  0.36860393  0.76775823    -0.30700
O3242       O  0.11717746  0.42282660  0.72968043    -0.22500
C3243       C  0.11958711  0.44235406  0.73683874    -0.02500
C3244       C  0.11743858  0.44397931  0.75865535    -0.16900
H3245       H  0.10233322  0.42673112  0.79737003     0.21100
H3246       H  0.10347572  0.38237877  0.73178494     0.19500
H3247       H  0.07499290  0.35812471  0.75573406     0.19400
H3248       H  0.11687446  0.45818467  0.76811860     0.15300
C3249       C  0.91118126  0.41901792  0.72025166     0.30700
C3250       C  0.93203549  0.41247785  0.71962601    -0.35600
C3251       C  0.93691030  0.39524361  0.73237788     0.16700
C3252       C  0.92207450  0.38479705  0.74454985     0.22500
C3253       C  0.90080150  0.39058408  0.74410830    -0.33800
C3254       C  0.89602494  0.40831111  0.73174578     0.16600
O3255       O  0.90442489  0.43699923  0.71280399    -0.25800
C3256       C  0.88472790  0.43783761  0.71937546     0.06400
C3257       C  0.87826492  0.42035398  0.73095373    -0.30700
O3258       O  0.93081284  0.37294039  0.75918386    -0.22500
C3259       C  0.95128400  0.37600505  0.75631712    -0.02500
C3260       C  0.95603750  0.38922538  0.73950981    -0.16900
H3261       H  0.94404741  0.42171277  0.71172871     0.21100
H3262       H  0.88935362  0.38340480  0.75456873     0.19500
H3263       H  0.86334744  0.41768817  0.73875357     0.19400
H3264       H  0.97113962  0.39599016  0.73539070     0.15300
C3265       C  0.88917921  0.34207369  0.91711667     0.30700
C3266       C  0.89785311  0.33100685  0.89986960    -0.35600
C3267       C  0.91411868  0.34142479  0.88882499     0.16700
C3268       C  0.92131355  0.36115896  0.89464608     0.22500
C3269       C  0.91270223  0.37211608  0.91164921    -0.33800
C3270       C  0.89650626  0.36189457  0.92242820     0.16600
O3271       O  0.87311211  0.33615662  0.92910157    -0.25800
C3272       C  0.87031866  0.35255952  0.94199192     0.06400
C3273       C  0.88442149  0.36889924  0.93848790    -0.30700
O3274       O  0.93653728  0.36812551  0.88251925    -0.22500
C3275       C  0.93927927  0.35285933  0.86848336    -0.02500
C3276       C  0.92572552  0.33575605  0.87148076    -0.16900
H3277       H  0.89211002  0.31561209  0.89518517     0.21100
H3278       H  0.91808150  0.38775133  0.91598795     0.19500
H3279       H  0.88508085  0.38415921  0.94616073     0.19400
H3280       H  0.92479050  0.32128230  0.86245751     0.15300
C3281       C  0.06563987  0.33830419  0.90425460     0.30700
C3282       C  0.08232321  0.32708466  0.91355642    -0.35600
C3283       C  0.09304415  0.33744413  0.92996425     0.16700
C3284       C  0.08761494  0.35741141  0.93676492     0.22500
C3285       C  0.07073888  0.36842815  0.92778230    -0.33800
C3286       C  0.06011057  0.35812040  0.91139974     0.16600
O3287       O  0.05490055  0.33267718  0.88727456    -0.25800
C3288       C  0.04227790  0.34906604  0.88368785     0.06400
C3289       C  0.04475918  0.36524609  0.89830456    -0.30700
O3290       O  0.10084236  0.36495049  0.95086381    -0.22500
C3291       C  0.11493659  0.34963687  0.95326182    -0.02500
C3292       C  0.11083904  0.33204506  0.94076058    -0.16900
H3293       H  0.08724214  0.31180780  0.90773271     0.21100
H3294       H  0.06679842  0.38434987  0.93255913     0.19500
H3295       H  0.03734377  0.38063714  0.89838156     0.19400
H3296       H  0.12025104  0.31792604  0.93898979     0.15300
C3297       C  0.00478748  0.23532657  0.73073224     0.30700
C3298       C  0.01644870  0.24415776  0.74764250    -0.35600
C3299       C  0.00712108  0.26127864  0.75850996     0.16700
C3300       C  0.98756336  0.26901988  0.75319056     0.22500
C3301       C  0.97605925  0.26041301  0.73619400    -0.33800
C3302       C  0.98544484  0.24350704  0.72526951     0.16600
O3303       O  0.01072635  0.21975346  0.71792963    -0.25800
C3304       C  0.99498788  0.21802312  0.70396432     0.06400
C3305       C  0.97897606  0.23257244  0.70780853    -0.30700
O3306       O  0.98189584  0.28526222  0.76506040    -0.22500
C3307       C  0.99802159  0.28827655  0.77828897    -0.02500
C3308       C  0.01425110  0.27379953  0.77480586    -0.16900
H3309       H  0.03189097  0.23830894  0.75183047     0.21100
H3310       H  0.96091708  0.26671989  0.73155801     0.19500
H3311       H  0.96480013  0.23509607  0.69864319     0.19400
H3312       H  0.02928250  0.27291514  0.78279972     0.15300
C3313       C  0.09768760  0.59654761  0.71630692     0.30700
C3314       C  0.08104875  0.61093526  0.71534051    -0.35600
C3315       C  0.07609910  0.62103895  0.73430764     0.16700
C3316       C  0.08775239  0.61810937  0.75261880     0.22500
C3317       C  0.10542115  0.60502643  0.75308137    -0.33800
C3318       C  0.10938961  0.59380360  0.73457488     0.16600
O3319       O  0.10044929  0.58111815  0.70280622    -0.25800
C3320       C  0.11369412  0.56823083  0.71265444     0.06400
C3321       C  0.12013313  0.57541234  0.73230798    -0.30700
O3322       O  0.07717101  0.62317569  0.76960614    -0.22500
C3323       C  0.05852382  0.62901816  0.76228081    -0.02500
C3324       C  0.05710162  0.62881109  0.74039546    -0.16900
H3325       H  0.07053410  0.61141689  0.70186700     0.21100
H3326       H  0.11311547  0.60100808  0.76784681     0.19500
H3327       H  0.12925094  0.56706698  0.74415173     0.19400
H3328       H  0.04302375  0.63016775  0.73084477     0.15300
C3329       C  0.90649941  0.59956809  0.77580913     0.30700
C3330       C  0.89132341  0.58372009  0.77738928    -0.35600
C3331       C  0.88103401  0.57860894  0.75860765     0.16700
C3332       C  0.88465952  0.58916731  0.73972958     0.22500
C3333       C  0.89923051  0.60569181  0.73838078    -0.33800
C3334       C  0.91032439  0.61005290  0.75695571     0.16600
O3335       O  0.92103100  0.60316514  0.79003611    -0.25800
C3336       C  0.93444873  0.61583719  0.78017094     0.06400
C3337       C  0.92856047  0.62095033  0.75962444    -0.30700
O3338       O  0.87715814  0.57888558  0.72338429    -0.22500
C3339       C  0.86903938  0.56152077  0.73186952    -0.02500
C3340       C  0.87070156  0.56055131  0.75369366    -0.16900
H3341       H  0.88967904  0.57420076  0.79156218     0.21100
H3342       H  0.90356198  0.61267703  0.72333679     0.19500
H3343       H  0.93741748  0.62964575  0.74783369     0.19400
H3344       H  0.86751573  0.54719361  0.76395962     0.15300
C3345       C  0.10847465  0.63021368  0.92074110     0.30700
C3346       C  0.09571633  0.61772933  0.90780810    -0.35600
C3347       C  0.08268525  0.62870194  0.89376894     0.16700
C3348       C  0.08210062  0.65047966  0.89250329     0.22500
C3349       C  0.09521037  0.66299691  0.90520865    -0.33800
C3350       C  0.10836777  0.65199073  0.91925826     0.16600
O3351       O  0.12123849  0.62320811  0.93553957    -0.25800
C3352       C  0.12956981  0.64067459  0.94357152     0.06400
C3353       C  0.12233276  0.65909020  0.93396883    -0.30700
O3354       O  0.06817721  0.65731419  0.87857467    -0.22500
C3355       C  0.05997554  0.63961933  0.87081526    -0.02500
C3356       C  0.06846023  0.62139078  0.87963375    -0.16900
H3357       H  0.09572745  0.60065007  0.90883970     0.21100
H3358       H  0.09497349  0.68008113  0.90439761     0.19500
H3359       H  0.12639923  0.67527785  0.93764340     0.19400
H3360       H  0.06454955  0.60510010  0.87622087     0.15300
C3361       C  0.93319954  0.66529681  0.89840224     0.30700
C3362       C  0.91471505  0.67572547  0.90481795    -0.35600
C3363       C  0.90409398  0.66680822  0.92226752     0.16700
C3364       C  0.91140204  0.64905445  0.93268533     0.22500
C3365       C  0.92989033  0.63892739  0.92653446    -0.33800
C3366       C  0.94025397  0.64759615  0.90907822     0.16600
O3367       O  0.94423875  0.66909580  0.88103215    -0.25800
C3368       C  0.95836955  0.65355187  0.88077522     0.06400
C3369       C  0.95658442  0.63981684  0.89782006    -0.30700
O3370       O  0.89823657  0.64198534  0.94706356    -0.22500
C3371       C  0.88215906  0.65529408  0.94608871    -0.02500
C3372       C  0.88491943  0.67123866  0.93102785    -0.16900
H3373       H  0.90842752  0.68905719  0.89610158     0.21100
H3374       H  0.93515547  0.62447859  0.93407572     0.19500
H3375       H  0.96511473  0.62527369  0.90061553     0.19400
H3376       H  0.87388116  0.68338251  0.92630933     0.15300
C3377       C  0.01002728  0.73683494  0.76576609     0.30700
C3378       C  0.02174861  0.75397924  0.75735743    -0.35600
C3379       C  0.01270486  0.76493971  0.73998202     0.16700
C3380       C  0.99336383  0.75951059  0.73173817     0.22500
C3381       C  0.98181320  0.74245524  0.73998868    -0.33800
C3382       C  0.99087804  0.73147880  0.75705989     0.16600
O3383       O  0.01595137  0.72332139  0.78088563    -0.25800
C3384       C  0.00029652  0.70916936  0.78176251     0.06400
C3385       C  0.98444514  0.71358921  0.76718128    -0.30700
O3386       O  0.98805910  0.77108283  0.71511582    -0.22500
C3387       C  0.00418916  0.78423777  0.71227273    -0.02500
C3388       C  0.02009927  0.78106412  0.72728975    -0.16900
H3389       H  0.03711601  0.75806603  0.76347482     0.21100
H3390       H  0.96697128  0.73764581  0.73311739     0.19500
H3391       H  0.97062233  0.70421234  0.76372724     0.19400
H3392       H  0.03514407  0.78900113  0.72829418     0.15300
C3393       C  0.99808207  0.47764557  0.83382817     0.30700
C3394       C  0.99195260  0.49603728  0.84500468    -0.35600
C3395       C  0.99748913  0.51580099  0.83589598     0.16700
C3396       C  0.00872582  0.51734682  0.81730771     0.22500
C3397       C  0.01466751  0.49903095  0.80608585    -0.33800
C3398       C  0.00878110  0.47936044  0.81494244     0.16600
O3399       O  0.99427431  0.45758037  0.83917447    -0.25800
C3400       C  0.00241437  0.44618224  0.82332108     0.06400
C3401       C  0.01158025  0.45909029  0.80785231    -0.30700
O3402       O  0.01248137  0.53725781  0.81166166    -0.22500
C3403       C  0.00325324  0.54894065  0.82660117    -0.02500
C3404       C  0.99358099  0.53630793  0.84205001    -0.16900
H3405       H  0.98324294  0.49502577  0.85968138     0.21100
H3406       H  0.02315294  0.50004888  0.79127494     0.19500
H3407       H  0.01926298  0.45420486  0.79339568     0.19400
H3408       H  0.98504074  0.54149238  0.85589644     0.15300
loop_ 
_geom_bond_atom_site_label_1 
_geom_bond_atom_site_label_2 
_geom_bond_distance 
_geom_bond_site_symmetry_2 
_ccdc_geom_bond_type 
Zn1           O5   1.902       .  S
Zn1           O6   2.073       .  S
Zn1          O10   1.976       .  S
Zn1          O17   1.955       .  S
Zn2           O5   1.928   1_655  S
Zn2           O7   2.000       .  S
Zn2           O9   2.099       .  S
Zn2          O13   1.979       .  S
Zn3           O5   1.966       .  S
Zn3           O8   2.046       .  S
Zn3          O11   2.054   1_455  S
Zn3          O14   2.116       .  S
Zn4           O5   1.932   1_655  S
Zn4          O12   2.005       .  S
Zn4          O15   2.003       .  S
Zn4          O16   2.022   1_655  S
O6           C18   1.276       .  A
O7           C19   1.276       .  A
O8           C20   1.279       .  A
O9           C18   1.279   1_655  A
O10          C20   1.273       .  A
O11          C19   1.280       .  A
O12          C21   1.270   1_655  A
O13          C22   1.272       .  A
O14          C21   1.282       .  A
O15          C22   1.276       .  A
O16          C23   1.276       .  A
O17          C23   1.269       .  A
C18        C3403   1.508       .  S
C19        C3368   1.466       .  S
C20        C3355   1.463       .  S
C21        C3384   1.494       .  S
C22        C3336   1.451       .  S
C23        C3323   1.453       .  S
Zn24         O28   1.960       .  S
Zn24         O29   2.097       .  S
Zn24         O33   2.036       .  S
Zn24         O40   1.995       .  S
Zn25         O28   1.940   1_655  S
Zn25         O30   2.038       .  S
Zn25         O32   2.039       .  S
Zn25         O36   1.963       .  S
Zn26         O28   1.937   1_655  S
Zn26         O31   2.005   1_655  S
Zn26         O34   2.001       .  S
Zn26         O37   2.099       .  S
Zn27         O28   1.929       .  S
Zn27         O35   2.076       .  S
Zn27         O38   2.010   1_455  S
Zn27         O39   2.002       .  S
O29          C41   1.280   1_455  A
O30          C42   1.277       .  A
O31          C43   1.277       .  A
O32          C41   1.273       .  A
O33          C43   1.280       .  A
O34          C42   1.274       .  A
O35          C44   1.278       .  A
O36          C45   1.270       .  A
O37          C44   1.279   1_655  A
O38          C45   1.278       .  A
O39          C46   1.274       .  A
O40          C46   1.269       .  A
C41        C3307   1.499       .  S
C42        C3275   1.466       .  S
C43        C3288   1.468       .  S
C44        C3400   1.511       .  S
C45        C3259   1.449       .  S
C46        C3240   1.449       .  S
Zn47         O51   1.909       .  S
Zn47         O52   2.089       .  S
Zn47         O56   1.972       .  S
Zn47         O63   2.010       .  S
Zn48         O51   1.929       .  S
Zn48         O53   1.969       .  S
Zn48         O55   2.069       .  S
Zn48         O59   1.977       .  S
Zn49         O51   1.928       .  S
Zn49         O54   2.037       .  S
Zn49         O57   2.017       .  S
Zn49         O60   2.008       .  S
Zn50         O51   1.984       .  S
Zn50         O58   2.133       .  S
Zn50         O61   2.070       .  S
Zn50         O62   2.039       .  S
O52          C64   1.277       .  A
O53          C65   1.270       .  A
O54          C66   1.278       .  A
O55          C64   1.274       .  A
O56          C66   1.272       .  A
O57          C65   1.278       .  A
O58          C67   1.283       .  A
O59          C68   1.273       .  A
O60          C67   1.272       .  A
O61          C68   1.281       .  A
O62          C69   1.278       .  A
O63          C69   1.278       .  A
C64        C3227   1.504       .  S
C65        C3320   1.452       .  S
C66        C3243   1.459       .  S
C67        C3211   1.504       .  S
C68        C3179   1.469       .  S
C69        C3192   1.463       .  S
Zn70         O74   1.930       .  S
Zn70         O75   1.986       .  S
Zn70         O79   2.004       .  S
Zn70         O86   2.077       .  S
Zn71         O74   1.941       .  S
Zn71         O76   2.061       .  S
Zn71         O78   1.968       .  S
Zn71         O82   2.022       .  S
Zn72         O74   1.941       .  S
Zn72         O77   1.974       .  S
Zn72         O80   2.071       .  S
Zn72         O83   2.025       .  S
Zn73         O74   1.939       .  S
Zn73         O81   2.000       .  S
Zn73         O84   1.996       .  S
Zn73         O85   2.083       .  S
O75          C87   1.271       .  A
O76          C88   1.277       .  A
O77          C89   1.269       .  A
O78          C87   1.266       .  A
O79          C89   1.276       .  A
O80          C88   1.278       .  A
O81          C90   1.274       .  A
O82          C91   1.278       .  A
O83          C90   1.278       .  A
O84          C91   1.276       .  A
O85          C92   1.277       .  A
O86          C92   1.278       .  A
C87        C3256   1.437       .  S
C88        C3160   1.499       .  S
C89        C3339   1.444       .  S
C90        C3128   1.463       .  S
C91        C3147   1.463       .  S
C92        C3224   1.504       .  S
Zn93         O97   1.940       .  S
Zn93         O98   1.948       .  S
Zn93        O102   2.081       .  S
Zn93        O109   1.982       .  S
Zn94         O97   1.956   1_545  S
Zn94         O99   2.032       .  S
Zn94        O101   2.050   1_545  S
Zn94        O105   2.020       .  S
Zn95         O97   1.928   1_545  S
Zn95        O100   2.056       .  S
Zn95        O103   1.966       .  S
Zn95        O106   1.986       .  S
Zn96         O97   1.993       .  S
Zn96        O104   2.084   1_565  S
Zn96        O107   2.135   1_565  S
Zn96        O108   2.071       .  S
O98         C110   1.267       .  A
O99         C111   1.278       .  A
O100        C112   1.273   1_545  A
O101        C110   1.277       .  A
O102        C112   1.275       .  A
O103        C111   1.268       .  A
O104        C113   1.283       .  A
O105        C114   1.273       .  A
O106        C113   1.273       .  A
O107        C114   1.286       .  A
O108        C115   1.281       .  A
O109        C115   1.273       .  A
C110       C3048   1.458       .  S
C111       C3032   1.456       .  S
C112       C3112   1.502       .  S
C113       C3080   1.471       .  S
C114       C3096   1.501       .  S
C115       C3067   1.471       .  S
Zn116       O120   1.927       .  S
Zn116       O121   2.085       .  S
Zn116       O125   1.966       .  S
Zn116       O132   1.995       .  S
Zn117       O120   1.904   1_545  S
Zn117       O122   1.936       .  S
Zn117       O124   2.063       .  S
Zn117       O128   1.982       .  S
Zn118       O120   1.930       .  S
Zn118       O123   2.015       .  S
Zn118       O126   2.038   1_565  S
Zn118       O129   2.025       .  S
Zn119       O120   1.964   1_545  S
Zn119       O127   2.132       .  S
Zn119       O130   2.054       .  S
Zn119       O131   2.056   1_545  S
O121        C133   1.277       .  A
O122        C134   1.269       .  A
O123        C135   1.278       .  A
O124        C133   1.274   1_545  A
O125        C135   1.270       .  A
O126        C134   1.278       .  A
O127        C136   1.284   1_545  A
O128        C137   1.273       .  A
O129        C136   1.272       .  A
O130        C137   1.280       .  A
O131        C138   1.281       .  A
O132        C138   1.277       .  A
C133       C3115   1.504       .  S
C134       C2952   1.456       .  S
C135       C2971   1.450       .  S
C136       C3016   1.504       .  S
C137       C2984   1.464       .  S
C138       C3003   1.463       .  S
Zn139       O143   1.943       .  S
Zn139       O144   2.041       .  S
Zn139       O148   2.014       .  S
Zn139       O155   2.022       .  S
Zn140       O143   1.924       .  S
Zn140       O145   2.090       .  S
Zn140       O147   1.957       .  S
Zn140       O151   1.979       .  S
Zn141       O143   1.924       .  S
Zn141       O146   1.964       .  S
Zn141       O149   2.073       .  S
Zn141       O152   1.990       .  S
Zn142       O143   1.978       .  S
Zn142       O150   2.069       .  S
Zn142       O153   2.037       .  S
Zn142       O154   2.117       .  S
O144        C156   1.278       .  A
O145        C157   1.277       .  A
O146        C158   1.270       .  A
O147        C156   1.268       .  A
O148        C158   1.277       .  A
O149        C157   1.275       .  A
O150        C159   1.281       .  A
O151        C160   1.274       .  A
O152        C159   1.276       .  A
O153        C160   1.277       .  A
O154        C161   1.284       .  A
O155        C161   1.271       .  A
C156       C3035   1.457       .  S
C157       C2936   1.508       .  S
C158       C2955   1.452       .  S
C159       C2904   1.473       .  S
C160       C2888   1.459       .  S
C161       C2920   1.495       .  S
Zn162       O166   1.928       .  S
Zn162       O167   1.997       .  S
Zn162       O171   1.981       .  S
Zn162       O178   2.080       .  S
Zn163       O166   1.981       .  S
Zn163       O168   2.127       .  S
Zn163       O170   2.065       .  S
Zn163       O174   2.052       .  S
Zn164       O166   1.944       .  S
Zn164       O169   2.016       .  S
Zn164       O172   2.013       .  S
Zn164       O175   2.023       .  S
Zn165       O166   1.929       .  S
Zn165       O173   1.952       .  S
Zn165       O176   1.992       .  S
Zn165       O177   2.080       .  S
O167        C179   1.276       .  A
O168        C180   1.285       .  A
O169        C181   1.276       .  A
O170        C179   1.282       .  A
O171        C181   1.270       .  A
O172        C180   1.270       .  A
O173        C182   1.269       .  A
O174        C183   1.278       .  A
O175        C182   1.275       .  A
O176        C183   1.274       .  A
O177        C184   1.277       .  A
O178        C184   1.276       .  A
C179       C2840   1.468       .  S
C180       C2872   1.496       .  S
C181       C3051   1.457       .  S
C182       C2968   1.454       .  S
C183       C2859   1.470       .  S
C184       C2939   1.507       .  S
Zn185       O189   1.949       .  S
Zn185       O190   2.065       .  S
Zn185       O194   1.981       .  S
Zn185       O201   2.018       .  S
Zn186       O189   1.939   1_554  S
Zn186       O191   1.949       .  S
Zn186       O193   2.048       .  S
Zn186       O197   2.020       .  S
Zn187       O189   1.952       .  S
Zn187       O192   2.042       .  S
Zn187       O195   2.043   1_556  S
Zn187       O198   2.108       .  S
Zn188       O189   1.942       .  S
Zn188       O196   2.088       .  S
Zn188       O199   2.012   1_556  S
Zn188       O200   2.012       .  S
O190        C202   1.276       .  A
O191        C203   1.267       .  A
O192        C204   1.279       .  A
O193        C202   1.274   1_554  A
O194        C204   1.270       .  A
O195        C203   1.278       .  A
O196        C205   1.280       .  A
O197        C206   1.275       .  A
O198        C205   1.283       .  A
O199        C206   1.275       .  A
O200        C207   1.277       .  A
O201        C207   1.277       .  A
C202       C2808   1.493       .  S
C203       C2760   1.448       .  S
C204       C2779   1.454       .  S
C205       C2824   1.514       .  S
C206       C2792   1.469       .  S
C207       C3000   1.464       .  S
Zn208       O212   1.910       .  S
Zn208       O213   2.034       .  S
Zn208       O217   2.109       .  S
Zn208       O224   1.981       .  S
Zn209       O212   1.942       .  S
Zn209       O214   2.056   1_556  S
Zn209       O216   2.020       .  S
Zn209       O220   2.100       .  S
Zn210       O212   1.917   1_554  S
Zn210       O215   2.078       .  S
Zn210       O218   1.992       .  S
Zn210       O221   1.991       .  S
Zn211       O212   1.920   1_554  S
Zn211       O219   2.000       .  S
Zn211       O222   2.012       .  S
Zn211       O223   2.006   1_554  S
O213        C225   1.279       .  A
O214        C226   1.282       .  A
O215        C227   1.278   1_554  A
O216        C225   1.276       .  A
O217        C227   1.281       .  A
O218        C226   1.278       .  A
O219        C228   1.273       .  A
O220        C229   1.282   1_556  A
O221        C228   1.271       .  A
O222        C229   1.273       .  A
O223        C230   1.273       .  A
O224        C230   1.270       .  A
C225       C3064   1.470       .  S
C226       C2728   1.470       .  S
C227       C2827   1.512       .  S
C228       C2699   1.456       .  S
C229       C2744   1.490       .  S
C230       C2715   1.443       .  S
Zn231       O235   1.933       .  S
Zn231       O236   2.002       .  S
Zn231       O240   2.077       .  S
Zn231       O247   2.017       .  S
Zn232       O235   1.945       .  S
Zn232       O237   1.982       .  S
Zn232       O239   2.037       .  S
Zn232       O243   2.058       .  S
Zn233       O235   1.937       .  S
Zn233       O238   2.082       .  S
Zn233       O241   2.021       .  S
Zn233       O244   2.008       .  S
Zn234       O235   1.937       .  S
Zn234       O242   1.977       .  S
Zn234       O245   2.041       .  S
Zn234       O246   2.009       .  S
O236        C248   1.276       .  A
O237        C249   1.271       .  A
O238        C250   1.279       .  A
O239        C248   1.277       .  A
O240        C250   1.279       .  A
O241        C249   1.276       .  A
O242        C251   1.267       .  A
O243        C252   1.277       .  A
O244        C251   1.275       .  A
O245        C252   1.275       .  A
O246        C253   1.275       .  A
O247        C253   1.276       .  A
C248       C2632   1.469       .  S
C249       C2696   1.455       .  S
C250       C2683   1.505       .  S
C251       C2763   1.445       .  S
C252       C2667   1.489       .  S
C253       C2648   1.465       .  S
Zn254       O258   1.934       .  S
Zn254       O259   1.981       .  S
Zn254       O263   2.061       .  S
Zn254       O270   2.014       .  S
Zn255       O258   1.935       .  S
Zn255       O260   2.051       .  S
Zn255       O262   1.983       .  S
Zn255       O266   2.055       .  S
Zn256       O258   1.947       .  S
Zn256       O261   2.104       .  S
Zn256       O264   2.022       .  S
Zn256       O267   2.017       .  S
Zn257       O258   1.951       .  S
Zn257       O265   2.020       .  S
Zn257       O268   2.081       .  S
Zn257       O269   1.994       .  S
O259        C271   1.273       .  A
O260        C272   1.280       .  A
O261        C273   1.281       .  A
O262        C271   1.272       .  A
O263        C273   1.276       .  A
O264        C272   1.275       .  A
O265        C274   1.279       .  A
O266        C275   1.278       .  A
O267        C274   1.279       .  A
O268        C275   1.279       .  A
O269        C276   1.269       .  A
O270        C276   1.275       .  A
C271       C2712   1.447       .  S
C272       C2603   1.476       .  S
C273       C2680   1.508       .  S
C274       C2619   1.464       .  S
C275       C2875   1.500       .  S
C276       C2776   1.452       .  S
Zn277       O281   1.937       .  S
Zn277       O282   2.043       .  S
Zn277       O286   1.995       .  S
Zn277       O293   2.001   1_556  S
Zn278       O281   1.932       .  S
Zn278       O283   2.015       .  S
Zn278       O285   2.097       .  S
Zn278       O289   1.996   1_556  S
Zn279       O281   1.961       .  S
Zn279       O284   2.003       .  S
Zn279       O287   2.038       .  S
Zn279       O290   2.085       .  S
Zn280       O281   1.939   1_554  S
Zn280       O288   2.025       .  S
Zn280       O291   2.042       .  S
Zn280       O292   1.976       .  S
O282        C294   1.272       .  A
O283        C295   1.278       .  A
O284        C296   1.270       .  A
O285        C294   1.280       .  A
O286        C296   1.275       .  A
O287        C295   1.280       .  A
O288        C297   1.274   1_554  A
O289        C298   1.273       .  A
O290        C297   1.281       .  A
O291        C298   1.277       .  A
O292        C299   1.270       .  A
O293        C299   1.275       .  A
C294       C2584   1.499       .  S
C295       C3371   1.469       .  S
C296       C2555   1.449       .  S
C297       C2747   1.490       .  S
C298       C2571   1.468       .  S
C299       C2536   1.448       .  S
Zn300       O304   1.901       .  S
Zn300       O305   2.067       .  S
Zn300       O309   1.965       .  S
Zn300       O316   1.974       .  S
Zn301       O304   1.921   1_554  S
Zn301       O306   1.995       .  S
Zn301       O308   2.084       .  S
Zn301       O312   2.000       .  S
Zn302       O304   1.923       .  S
Zn302       O307   2.002       .  S
Zn302       O310   2.006   1_556  S
Zn302       O313   1.986       .  S
Zn303       O304   1.980       .  S
Zn303       O311   2.125       .  S
Zn303       O314   2.065   1_556  S
Zn303       O315   2.067       .  S
O305        C317   1.276       .  A
O306        C318   1.274       .  A
O307        C319   1.274       .  A
O308        C317   1.278   1_554  A
O309        C319   1.269       .  A
O310        C318   1.275       .  A
O311        C320   1.283       .  A
O312        C321   1.276       .  A
O313        C320   1.269       .  A
O314        C321   1.282       .  A
O315        C322   1.280       .  A
O316        C322   1.273       .  A
C317       C2587   1.502       .  S
C318       C2475   1.458       .  S
C319       C2488   1.453       .  S
C320       C2520   1.494       .  S
C321       C2504   1.470       .  S
C322       C3272   1.465       .  S
Zn323       O327   1.947       .  S
Zn323       O328   2.093       .  S
Zn323       O332   2.008       .  S
Zn323       O339   2.008       .  S
Zn324       O327   1.930       .  S
Zn324       O329   1.982       .  S
Zn324       O331   2.062       .  S
Zn324       O335   1.988       .  S
Zn325       O327   1.952       .  S
Zn325       O330   2.032       .  S
Zn325       O333   1.998       .  S
Zn325       O336   2.042       .  S
Zn326       O327   1.970       .  S
Zn326       O334   2.088       .  S
Zn326       O337   2.009       .  S
Zn326       O338   2.045       .  S
O328        C340   1.278       .  A
O329        C341   1.271       .  A
O330        C342   1.277       .  A
O331        C340   1.276       .  A
O332        C342   1.275       .  A
O333        C341   1.272       .  A
O334        C343   1.280       .  A
O335        C344   1.272       .  A
O336        C343   1.276       .  A
O337        C344   1.270       .  A
O338        C345   1.280       .  A
O339        C345   1.277       .  A
C340       C2456   1.505       .  S
C341       C2539   1.453       .  S
C342       C2635   1.466       .  S
C343       C2440   1.498       .  S
C344       C2472   1.450       .  S
C345       C2424   1.472       .  S
Zn346       O350   1.906       .  S
Zn346       O351   1.967       .  S
Zn346       O355   2.085       .  S
Zn346       O362   2.006       .  S
Zn347       O350   1.938       .  S
Zn347       O352   2.012       .  S
Zn347       O354   2.033       .  S
Zn347       O358   2.013       .  S
Zn348       O350   1.925       .  S
Zn348       O353   2.087       .  S
Zn348       O356   1.961       .  S
Zn348       O359   1.992       .  S
Zn349       O350   1.968       .  S
Zn349       O357   2.078       .  S
Zn349       O360   2.139       .  S
Zn349       O361   2.068       .  S
O351        C363   1.271       .  A
O352        C364   1.277       .  A
O353        C365   1.277       .  A
O354        C363   1.278       .  A
O355        C365   1.277       .  A
O356        C364   1.270       .  A
O357        C366   1.282       .  A
O358        C367   1.270       .  A
O359        C366   1.274       .  A
O360        C367   1.285       .  A
O361        C368   1.283       .  A
O362        C368   1.277       .  A
C363       C2552   1.457       .  S
C364       C2491   1.452       .  S
C365       C2459   1.506       .  S
C366       C2408   1.471       .  S
C367       C3163   1.501       .  S
C368       C2600   1.472       .  S
Zn369       O373   1.938       .  S
Zn369       O374   2.026       .  S
Zn369       O378   2.015   1_455  S
Zn369       O385   2.101       .  S
Zn370       O373   1.946       .  S
Zn370       O375   2.076       .  S
Zn370       O377   2.019       .  S
Zn370       O381   1.973       .  S
Zn371       O373   1.923   1_655  S
Zn371       O376   2.011       .  S
Zn371       O379   2.037       .  S
Zn371       O382   1.965       .  S
Zn372       O373   1.934       .  S
Zn372       O380   2.015   1_455  S
Zn372       O383   2.017       .  S
Zn372       O384   2.087       .  S
O374        C386   1.279       .  A
O375        C387   1.277       .  A
O376        C388   1.275       .  A
O377        C386   1.277       .  A
O378        C388   1.276       .  A
O379        C387   1.274   1_655  A
O380        C389   1.274       .  A
O381        C390   1.270       .  A
O382        C389   1.268       .  A
O383        C390   1.276       .  A
O384        C391   1.281       .  A
O385        C391   1.281       .  A
C386       C2376   1.468       .  S
C387       C3387   1.492       .  S
C388       C2360   1.462       .  S
C389       C2344   1.446       .  S
C390       C2328   1.449       .  S
C391       C2395   1.513       .  S
Zn392       O396   1.938       .  S
Zn392       O397   2.008       .  S
Zn392       O401   2.076       .  S
Zn392       O408   1.995   1_655  S
Zn393       O396   1.954       .  S
Zn393       O398   2.026       .  S
Zn393       O400   1.987       .  S
Zn393       O404   2.062       .  S
Zn394       O396   1.950       .  S
Zn394       O399   2.102       .  S
Zn394       O402   2.033       .  S
Zn394       O405   1.988   1_655  S
Zn395       O396   1.959   1_455  S
Zn395       O403   2.044       .  S
Zn395       O406   2.059       .  S
Zn395       O407   1.988       .  S
O397        C409   1.275       .  A
O398        C410   1.278       .  A
O399        C411   1.280       .  A
O400        C409   1.268       .  A
O401        C411   1.276       .  A
O402        C410   1.279       .  A
O403        C412   1.278       .  A
O404        C413   1.278       .  A
O405        C412   1.274       .  A
O406        C413   1.276   1_455  A
O407        C414   1.273       .  A
O408        C414   1.274       .  A
C409       C2264   1.447       .  S
C410       C2296   1.472       .  S
C411       C2392   1.511       .  S
C412       C2280   1.468       .  S
C413       C2312   1.495       .  S
C414       C2248   1.449       .  S
Zn415       O419   1.925       .  S
Zn415       O420   2.002       .  S
Zn415       O424   2.074       .  S
Zn415       O431   1.993       .  S
Zn416       O419   1.955       .  S
Zn416       O421   2.036       .  S
Zn416       O423   1.997       .  S
Zn416       O427   2.096       .  S
Zn417       O419   1.939       .  S
Zn417       O422   2.103       .  S
Zn417       O425   2.011       .  S
Zn417       O428   2.005       .  S
Zn418       O419   1.931       .  S
Zn418       O426   2.026       .  S
Zn418       O429   2.027       .  S
Zn418       O430   1.976       .  S
O420        C432   1.275       .  A
O421        C433   1.281       .  A
O422        C434   1.280       .  A
O423        C432   1.271       .  A
O424        C434   1.277       .  A
O425        C433   1.278       .  A
O426        C435   1.276       .  A
O427        C436   1.280       .  A
O428        C435   1.275       .  A
O429        C436   1.273       .  A
O430        C437   1.271       .  A
O431        C437   1.275       .  A
C432       C2331   1.448       .  S
C433       C3176   1.466       .  S
C434       C2235   1.512       .  S
C435       C2203   1.466       .  S
C436       C2216   1.495       .  S
C437       C2251   1.448       .  S
Zn438       O442   1.949       .  S
Zn438       O443   2.075       .  S
Zn438       O447   2.045       .  S
Zn438       O454   1.977       .  S
Zn439       O442   1.933       .  S
Zn439       O444   2.014       .  S
Zn439       O446   2.056       .  S
Zn439       O450   1.957       .  S
Zn440       O442   1.940       .  S
Zn440       O445   2.018       .  S
Zn440       O448   2.008       .  S
Zn440       O451   2.094       .  S
Zn441       O442   1.941       .  S
Zn441       O449   2.094       .  S
Zn441       O452   2.018       .  S
Zn441       O453   2.021       .  S
O443        C455   1.278       .  A
O444        C456   1.276       .  A
O445        C457   1.277       .  A
O446        C455   1.275       .  A
O447        C457   1.280       .  A
O448        C456   1.276       .  A
O449        C458   1.281       .  A
O450        C459   1.267       .  A
O451        C458   1.281       .  A
O452        C459   1.274       .  A
O453        C460   1.278       .  A
O454        C460   1.270       .  A
C455       C2187   1.499       .  S
C456       C3131   1.464       .  S
C457       C2171   1.473       .  S
C458       C2232   1.512       .  S
C459       C2347   1.443       .  S
C460       C2267   1.450       .  S
Zn461       O465   1.902       .  S
Zn461       O466   1.996       .  S
Zn461       O470   2.005       .  S
Zn461       O477   2.025   1_545  S
Zn462       O465   1.934       .  S
Zn462       O467   2.008       .  S
Zn462       O469   1.986       .  S
Zn462       O473   2.101       .  S
Zn463       O465   1.969   1_565  S
Zn463       O468   2.133       .  S
Zn463       O471   2.050   1_565  S
Zn463       O474   2.043       .  S
Zn464       O465   1.896   1_565  S
Zn464       O472   1.988       .  S
Zn464       O475   2.076       .  S
Zn464       O476   1.960       .  S
O466        C478   1.277       .  A
O467        C479   1.278       .  A
O468        C480   1.284   1_565  A
O469        C478   1.272       .  A
O470        C480   1.271       .  A
O471        C479   1.280       .  A
O472        C481   1.276       .  A
O473        C482   1.279       .  A
O474        C481   1.279       .  A
O475        C482   1.276   1_565  A
O476        C483   1.269       .  A
O477        C483   1.277       .  A
C478       C2104   1.452       .  S
C479       C2136   1.466       .  S
C480       C3099   1.504       .  S
C481       C2363   1.462       .  S
C482       C2155   1.510       .  S
C483       C2123   1.454       .  S
Zn484       O488   1.963       .  S
Zn484       O489   1.985       .  S
Zn484       O493   2.088       .  S
Zn484       O500   2.055       .  S
Zn485       O488   1.943       .  S
Zn485       O490   1.994   1_545  S
Zn485       O492   2.021       .  S
Zn485       O496   2.076       .  S
Zn486       O488   1.947   1_565  S
Zn486       O491   2.072       .  S
Zn486       O494   1.993       .  S
Zn486       O497   2.040       .  S
Zn487       O488   1.941       .  S
Zn487       O495   2.016   1_545  S
Zn487       O498   2.100       .  S
Zn487       O499   1.989       .  S
O489        C501   1.272       .  A
O490        C502   1.273       .  A
O491        C503   1.279       .  A
O492        C501   1.277       .  A
O493        C503   1.280   1_545  A
O494        C502   1.270       .  A
O495        C504   1.277       .  A
O496        C505   1.278       .  A
O497        C504   1.279       .  A
O498        C505   1.279       .  A
O499        C506   1.274       .  A
O500        C506   1.279       .  A
C501       C2040   1.451       .  S
C502       C2059   1.448       .  S
C503       C2091   1.504       .  S
C504       C2299   1.473       .  S
C505       C2152   1.510       .  S
C506       C2072   1.472       .  S
Zn507       O511   1.984       .  S
Zn507       O512   2.045       .  S
Zn507       O516   2.075       .  S
Zn507       O523   2.113       .  S
Zn508       O511   1.923       .  S
Zn508       O513   2.072       .  S
Zn508       O515   1.964       .  S
Zn508       O519   1.950       .  S
Zn509       O511   1.928       .  S
Zn509       O514   1.991       .  S
Zn509       O517   2.071       .  S
Zn509       O520   1.960       .  S
Zn510       O511   1.953       .  S
Zn510       O518   2.017       .  S
Zn510       O521   2.044       .  S
Zn510       O522   2.019       .  S
O512        C524   1.277       .  A
O513        C525   1.274       .  A
O514        C526   1.275       .  A
O515        C524   1.272       .  A
O516        C526   1.282       .  A
O517        C525   1.275       .  A
O518        C527   1.276       .  A
O519        C528   1.268       .  A
O520        C527   1.269       .  A
O521        C528   1.277       .  A
O522        C529   1.271       .  A
O523        C529   1.283       .  A
C524       C2891   1.463       .  S
C525       C2027   1.503       .  S
C526       C1992   1.472       .  S
C527       C2043   1.453       .  S
C528       C2107   1.456       .  S
C529       C2011   1.493       .  S
Zn530       O534   1.913       .  S
Zn530       O535   2.059       .  S
Zn530       O539   1.965       .  S
Zn530       O546   1.959       .  S
Zn531       O534   1.930       .  S
Zn531       O536   1.992       .  S
Zn531       O538   2.081       .  S
Zn531       O542   1.972       .  S
Zn532       O534   1.985       .  S
Zn532       O537   2.068       .  S
Zn532       O540   2.079       .  S
Zn532       O543   2.126       .  S
Zn533       O534   1.943       .  S
Zn533       O541   2.021       .  S
Zn533       O544   2.017       .  S
Zn533       O545   2.038       .  S
O535        C547   1.274       .  A
O536        C548   1.276       .  A
O537        C549   1.279       .  A
O538        C547   1.276       .  A
O539        C549   1.271       .  A
O540        C548   1.283       .  A
O541        C550   1.272       .  A
O542        C551   1.270       .  A
O543        C550   1.286       .  A
O544        C551   1.277       .  A
O545        C552   1.277       .  A
O546        C552   1.269       .  A
C547       C2024   1.502       .  S
C548       C2843   1.474       .  S
C549       C1976   1.470       .  S
C550       C2184   1.496       .  S
C551       C2120   1.453       .  S
C552       C2056   1.458       .  S
Zn553       O557   1.933       .  S
Zn553       O558   1.976       .  S
Zn553       O562   1.988       .  S
Zn553       O569   2.083       .  S
Zn554       O557   1.944       .  S
Zn554       O559   2.031       .  S
Zn554       O561   2.024       .  S
Zn554       O565   2.037   1_565  S
Zn555       O557   1.969       .  S
Zn555       O560   2.071       .  S
Zn555       O563   2.124       .  S
Zn555       O566   2.046   1_565  S
Zn556       O557   1.915   1_545  S
Zn556       O564   2.013       .  S
Zn556       O567   1.968       .  S
Zn556       O568   2.092       .  S
O558        C570   1.270       .  A
O559        C571   1.274       .  A
O560        C572   1.282       .  A
O561        C570   1.277       .  A
O562        C572   1.275       .  A
O563        C571   1.284       .  A
O564        C573   1.277       .  A
O565        C574   1.278       .  A
O566        C573   1.279       .  A
O567        C574   1.270       .  A
O568        C575   1.278   1_545  A
O569        C575   1.277       .  A
C570       C1928   1.455       .  S
C571       C2088   1.502       .  S
C572       C2731   1.468       .  S
C573       C1944   1.472       .  S
C574       C1915   1.455       .  S
C575       C1963   1.509       .  S
Zn576       O580   1.958   1_545  S
Zn576       O581   2.084       .  S
Zn576       O585   2.027       .  S
Zn576       O592   2.001       .  S
Zn577       O580   1.946       .  S
Zn577       O582   2.048       .  S
Zn577       O584   2.069       .  S
Zn577       O588   1.978       .  S
Zn578       O580   1.945       .  S
Zn578       O583   2.013   1_565  S
Zn578       O586   1.994       .  S
Zn578       O589   2.104       .  S
Zn579       O580   1.934       .  S
Zn579       O587   2.066       .  S
Zn579       O590   2.016       .  S
Zn579       O591   1.995   1_565  S
O581        C593   1.279   1_545  A
O582        C594   1.279       .  A
O583        C595   1.278       .  A
O584        C593   1.278       .  A
O585        C595   1.279       .  A
O586        C594   1.273       .  A
O587        C596   1.277       .  A
O588        C597   1.272       .  A
O589        C596   1.280       .  A
O590        C597   1.277       .  A
O591        C598   1.273       .  A
O592        C598   1.270       .  A
C593       C1896   1.504       .  S
C594       C2795   1.468       .  S
C595       C1880   1.467       .  S
C596       C1960   1.510       .  S
C597       C1864   1.454       .  S
C598       C1848   1.450       .  S
Zn599       O603   1.943       .  S
Zn599       O604   2.004       .  S
Zn599       O608   2.065       .  S
Zn599       O615   2.043       .  S
Zn600       O603   1.925       .  S
Zn600       O605   1.988       .  S
Zn600       O607   2.014       .  S
Zn600       O611   2.046       .  S
Zn601       O603   1.954       .  S
Zn601       O606   2.063       .  S
Zn601       O609   2.008       .  S
Zn601       O612   2.028       .  S
Zn602       O603   1.943       .  S
Zn602       O610   2.037       .  S
Zn602       O613   2.109       .  S
Zn602       O614   2.005       .  S
O604        C616   1.273       .  A
O605        C617   1.272       .  A
O606        C618   1.278       .  A
O607        C616   1.276       .  A
O608        C618   1.278       .  A
O609        C617   1.272       .  A
O610        C619   1.280       .  A
O611        C620   1.274       .  A
O612        C619   1.278       .  A
O613        C620   1.282       .  A
O614        C621   1.275       .  A
O615        C621   1.279       .  A
C616       C1851   1.459       .  S
C617       C1912   1.451       .  S
C618       C1819   1.495       .  S
C619       C1995   1.473       .  S
C620       C1832   1.505       .  S
C621       C1800   1.466       .  S
Zn622       O626   1.930       .  S
Zn622       O627   2.074       .  S
Zn622       O631   2.002       .  S
Zn622       O638   2.028       .  S
Zn623       O626   1.938       .  S
Zn623       O628   2.030       .  S
Zn623       O630   2.093       .  S
Zn623       O634   2.025       .  S
Zn624       O626   1.942       .  S
Zn624       O629   1.979       .  S
Zn624       O632   2.020       .  S
Zn624       O635   2.064       .  S
Zn625       O626   1.931       .  S
Zn625       O633   2.039       .  S
Zn625       O636   2.023       .  S
Zn625       O637   1.981       .  S
O627        C639   1.279       .  A
O628        C640   1.279       .  A
O629        C641   1.268       .  A
O630        C639   1.280       .  A
O631        C641   1.275       .  A
O632        C640   1.278       .  A
O633        C642   1.275       .  A
O634        C643   1.277       .  A
O635        C642   1.276       .  A
O636        C643   1.276       .  A
O637        C644   1.271       .  A
O638        C644   1.278       .  A
C639       C1835   1.507       .  S
C640       C1784   1.469       .  S
C641       C1867   1.446       .  S
C642       C2664   1.491       .  S
C643       C1979   1.465       .  S
C644       C1931   1.456       .  S
Zn645       O649   1.926       .  S
Zn645       O650   1.988       .  S
Zn645       O654   1.981       .  S
Zn645       O661   2.017   1_556  S
Zn646       O649   1.933       .  S
Zn646       O651   2.013       .  S
Zn646       O653   2.003       .  S
Zn646       O657   2.088       .  S
Zn647       O649   1.975   1_554  S
Zn647       O652   2.138       .  S
Zn647       O655   2.070   1_554  S
Zn647       O658   2.069       .  S
Zn648       O649   1.903   1_554  S
Zn648       O656   1.984       .  S
Zn648       O659   2.068       .  S
Zn648       O660   1.968       .  S
O650        C662   1.272       .  A
O651        C663   1.279       .  A
O652        C664   1.285   1_554  A
O653        C662   1.273       .  A
O654        C664   1.268       .  A
O655        C663   1.282       .  A
O656        C665   1.274       .  A
O657        C666   1.280   1_556  A
O658        C665   1.281       .  A
O659        C666   1.276       .  A
O660        C667   1.269       .  A
O661        C667   1.274       .  A
C662       C1752   1.455       .  S
C663       C3083   1.476       .  S
C664       C2523   1.494       .  S
C665       C1947   1.474       .  S
C666       C1768   1.503       .  S
C667       C1739   1.453       .  S
Zn668       O672   1.925       .  S
Zn668       O673   2.002   1_554  S
Zn668       O677   2.060       .  S
Zn668       O684   2.001       .  S
Zn669       O672   1.948   1_556  S
Zn669       O674   2.042       .  S
Zn669       O676   1.976       .  S
Zn669       O680   2.039       .  S
Zn670       O672   1.934       .  S
Zn670       O675   2.096       .  S
Zn670       O678   1.998   1_554  S
Zn670       O681   2.023       .  S
Zn671       O672   1.946       .  S
Zn671       O679   2.018       .  S
Zn671       O682   2.080       .  S
Zn671       O683   1.992       .  S
O673        C685   1.277       .  A
O674        C686   1.277       .  A
O675        C687   1.279       .  A
O676        C685   1.272       .  A
O677        C687   1.275       .  A
O678        C686   1.274       .  A
O679        C688   1.280       .  A
O680        C689   1.275   1_556  A
O681        C688   1.279       .  A
O682        C689   1.279       .  A
O683        C690   1.268       .  A
O684        C690   1.274       .  A
C685       C1707   1.451       .  S
C686       C2987   1.467       .  S
C687       C1771   1.505       .  S
C688       C1883   1.466       .  S
C689       C1723   1.496       .  S
C690       C1688   1.450       .  S
Zn691       O695   1.941       .  S
Zn691       O696   2.017       .  S
Zn691       O700   1.977       .  S
Zn691       O707   2.058       .  S
Zn692       O695   1.945       .  S
Zn692       O697   2.109       .  S
Zn692       O699   2.041       .  S
Zn692       O703   2.016       .  S
Zn693       O695   1.935       .  S
Zn693       O698   2.007       .  S
Zn693       O701   2.062       .  S
Zn693       O704   2.035       .  S
Zn694       O695   1.941       .  S
Zn694       O702   1.977       .  S
Zn694       O705   2.038       .  S
Zn694       O706   2.067       .  S
O696        C708   1.278       .  A
O697        C709   1.282       .  A
O698        C710   1.275       .  A
O699        C708   1.280       .  A
O700        C710   1.268       .  A
O701        C709   1.278       .  A
O702        C711   1.270       .  A
O703        C712   1.278       .  A
O704        C711   1.278       .  A
O705        C712   1.278       .  A
O706        C713   1.278       .  A
O707        C713   1.276       .  A
C708       C2427   1.472       .  S
C709       C1672   1.510       .  S
C710       C1736   1.446       .  S
C711       C1691   1.457       .  S
C712       C1656   1.473       .  S
C713       C1816   1.496       .  S
Zn714       O718   1.939       .  S
Zn714       O719   2.012       .  S
Zn714       O723   2.016       .  S
Zn714       O730   2.102       .  S
Zn715       O718   1.953       .  S
Zn715       O720   2.051       .  S
Zn715       O722   2.041       .  S
Zn715       O726   1.999       .  S
Zn716       O718   1.967       .  S
Zn716       O721   2.065       .  S
Zn716       O724   2.093       .  S
Zn716       O727   2.003       .  S
Zn717       O718   1.933       .  S
Zn717       O725   1.997       .  S
Zn717       O728   1.976       .  S
Zn717       O729   2.071       .  S
O719        C731   1.277       .  A
O720        C732   1.278       .  A
O721        C733   1.282       .  A
O722        C731   1.278       .  A
O723        C733   1.279       .  A
O724        C732   1.281       .  A
O725        C734   1.274       .  A
O726        C735   1.270       .  A
O727        C734   1.272       .  A
O728        C735   1.271       .  A
O729        C736   1.277       .  A
O730        C736   1.280       .  A
C731       C1643   1.470       .  S
C732       C2923   1.502       .  S
C733       C2411   1.480       .  S
C734       C1755   1.450       .  S
C735       C1704   1.448       .  S
C736       C1675   1.510       .  S
Zn737       O741   1.937   1_554  S
Zn737       O742   2.031       .  S
Zn737       O746   2.025       .  S
Zn737       O753   1.975       .  S
Zn738       O741   1.940       .  S
Zn738       O743   2.032       .  S
Zn738       O745   2.078       .  S
Zn738       O749   1.988       .  S
Zn739       O741   1.929       .  S
Zn739       O744   1.993   1_556  S
Zn739       O747   2.011       .  S
Zn739       O750   2.085       .  S
Zn740       O741   1.922       .  S
Zn740       O748   2.059       .  S
Zn740       O751   2.006       .  S
Zn740       O752   1.989   1_556  S
O742        C754   1.274       .  A
O743        C755   1.280       .  A
O744        C756   1.273       .  A
O745        C754   1.280   1_556  A
O746        C756   1.276       .  A
O747        C755   1.277       .  A
O748        C757   1.275       .  A
O749        C758   1.268       .  A
O750        C757   1.279       .  A
O751        C758   1.275       .  A
O752        C759   1.273       .  A
O753        C759   1.271       .  A
C754       C1720   1.492       .  S
C755       C3291   1.467       .  S
C756       C1608   1.461       .  S
C757       C1624   1.501       .  S
C758       C1595   1.448       .  S
C759       C1576   1.443       .  S
Zn760       O764   1.939   1_556  S
Zn760       O765   2.037       .  S
Zn760       O769   2.009       .  S
Zn760       O776   1.952       .  S
Zn761       O764   1.923       .  S
Zn761       O766   2.018       .  S
Zn761       O768   2.064       .  S
Zn761       O772   1.990       .  S
Zn762       O764   1.934   1_556  S
Zn762       O767   2.012       .  S
Zn762       O770   2.025   1_556  S
Zn762       O773   2.072   1_556  S
Zn763       O764   1.932       .  S
Zn763       O771   2.083   1_554  S
Zn763       O774   2.032       .  S
Zn763       O775   2.022   1_554  S
O765        C777   1.273   1_556  A
O766        C778   1.278       .  A
O767        C779   1.274       .  A
O768        C777   1.277       .  A
O769        C779   1.274       .  A
O770        C778   1.278       .  A
O771        C780   1.281       .  A
O772        C781   1.272       .  A
O773        C780   1.278   1_554  A
O774        C781   1.277       .  A
O775        C782   1.277       .  A
O776        C782   1.266       .  A
C777       C2811   1.491       .  S
C778       C1560   1.468       .  S
C779       C3352   1.461       .  S
C780       C1627   1.503       .  S
C781       C1528   1.458       .  S
C782       C1547   1.443       .  S
Zn783       O787   1.967       .  S
Zn783       O788   2.099       .  S
Zn783       O792   2.013       .  S
Zn783       O799   2.025       .  S
Zn784       O787   1.951       .  S
Zn784       O789   1.984       .  S
Zn784       O791   2.045       .  S
Zn784       O795   2.060       .  S
Zn785       O787   1.937       .  S
Zn785       O790   1.990       .  S
Zn785       O793   1.979       .  S
Zn785       O796   2.063       .  S
Zn786       O787   1.946       .  S
Zn786       O794   2.090       .  S
Zn786       O797   1.993       .  S
Zn786       O798   2.015       .  S
O788        C800   1.281       .  A
O789        C801   1.272       .  A
O790        C802   1.272       .  A
O791        C800   1.277       .  A
O792        C802   1.270       .  A
O793        C801   1.274       .  A
O794        C803   1.277       .  A
O795        C804   1.278       .  A
O796        C803   1.274       .  A
O797        C804   1.272       .  A
O798        C805   1.278       .  A
O799        C805   1.281       .  A
C800       C1499   1.503       .  S
C801       C1579   1.448       .  S
C802       C1531   1.453       .  S
C803       C1515   1.503       .  S
C804       C1659   1.471       .  S
C805       C2651   1.465       .  S
Zn806       O810   1.904       .  S
Zn806       O811   1.971       .  S
Zn806       O815   2.058       .  S
Zn806       O822   1.942       .  S
Zn807       O810   1.988       .  S
Zn807       O812   2.067       .  S
Zn807       O814   2.063       .  S
Zn807       O818   2.134       .  S
Zn808       O810   1.927       .  S
Zn808       O813   2.099       .  S
Zn808       O816   1.988       .  S
Zn808       O819   1.974       .  S
Zn809       O810   1.939       .  S
Zn809       O817   2.023       .  S
Zn809       O820   2.006       .  S
Zn809       O821   2.023       .  S
O811        C823   1.273       .  A
O812        C824   1.281       .  A
O813        C825   1.278       .  A
O814        C823   1.280       .  A
O815        C825   1.273       .  A
O816        C824   1.274       .  A
O817        C826   1.276       .  A
O818        C827   1.284       .  A
O819        C826   1.273       .  A
O820        C827   1.271       .  A
O821        C828   1.276       .  A
O822        C828   1.268       .  A
C823       C2616   1.464       .  S
C824       C1640   1.468       .  S
C825       C1512   1.504       .  S
C826       C1592   1.458       .  S
C827       C3208   1.499       .  S
C828       C1544   1.453       .  S
Zn829       O833   1.934       .  S
Zn829       O834   2.019       .  S
Zn829       O838   2.010   1_655  S
Zn829       O845   2.066       .  S
Zn830       O833   1.941       .  S
Zn830       O835   2.063       .  S
Zn830       O837   1.980       .  S
Zn830       O841   2.032       .  S
Zn831       O833   1.933   1_455  S
Zn831       O836   1.972       .  S
Zn831       O839   2.058       .  S
Zn831       O842   2.025       .  S
Zn832       O833   1.934       .  S
Zn832       O840   2.024   1_655  S
Zn832       O843   2.018       .  S
Zn832       O844   2.099       .  S
O834        C846   1.276       .  A
O835        C847   1.278       .  A
O836        C848   1.267       .  A
O837        C846   1.269       .  A
O838        C848   1.274       .  A
O839        C847   1.278   1_455  A
O840        C849   1.278       .  A
O841        C850   1.278       .  A
O842        C849   1.278       .  A
O843        C850   1.279       .  A
O844        C851   1.281       .  A
O845        C851   1.278       .  A
C846       C1467   1.450       .  S
C847       C2315   1.495       .  S
C848       C1451   1.444       .  S
C849       C1563   1.470       .  S
C850       C2568   1.471       .  S
C851       C1483   1.508       .  S
Zn852       O856   1.943       .  S
Zn852       O857   2.019       .  S
Zn852       O861   2.008   1_655  S
Zn852       O868   2.097       .  S
Zn853       O856   1.955       .  S
Zn853       O858   2.086       .  S
Zn853       O860   2.044       .  S
Zn853       O864   1.983       .  S
Zn854       O856   1.938   1_455  S
Zn854       O859   2.007       .  S
Zn854       O862   2.059       .  S
Zn854       O865   1.968       .  S
Zn855       O856   1.943       .  S
Zn855       O863   2.035   1_655  S
Zn855       O866   2.016       .  S
Zn855       O867   2.084       .  S
O857        C869   1.278       .  A
O858        C870   1.280       .  A
O859        C871   1.274       .  A
O860        C869   1.279       .  A
O861        C871   1.276       .  A
O862        C870   1.275   1_455  A
O863        C872   1.278       .  A
O864        C873   1.269       .  A
O865        C872   1.269       .  A
O866        C873   1.277       .  A
O867        C874   1.278       .  A
O868        C874   1.280       .  A
C869       C2507   1.475       .  S
C870       C1432   1.502       .  S
C871       C1611   1.462       .  S
C872       C1403   1.454       .  S
C873       C1416   1.448       .  S
C874       C1480   1.511       .  S
Zn875       O879   1.973       .  S
Zn875       O880   2.081       .  S
Zn875       O884   2.066       .  S
Zn875       O891   2.127       .  S
Zn876       O879   1.924       .  S
Zn876       O881   2.063       .  S
Zn876       O883   1.992       .  S
Zn876       O887   1.964       .  S
Zn877       O879   1.919       .  S
Zn877       O882   1.976       .  S
Zn877       O885   2.074       .  S
Zn877       O888   1.961       .  S
Zn878       O879   1.941       .  S
Zn878       O886   2.033       .  S
Zn878       O889   2.026       .  S
Zn878       O890   2.030       .  S
O880        C892   1.283       .  A
O881        C893   1.274       .  A
O882        C894   1.272       .  A
O883        C892   1.275       .  A
O884        C894   1.281       .  A
O885        C893   1.275       .  A
O886        C895   1.278       .  A
O887        C896   1.270       .  A
O888        C895   1.270       .  A
O889        C896   1.277       .  A
O890        C897   1.273       .  A
O891        C897   1.286       .  A
C892       C1371   1.473       .  S
C893       C1387   1.501       .  S
C894       C2200   1.464       .  S
C895       C1448   1.454       .  S
C896       C1400   1.456       .  S
C897       C1496   1.499       .  S
Zn898       O902   1.947       .  S
Zn898       O903   2.036       .  S
Zn898       O907   2.021       .  S
Zn898       O914   2.021       .  S
Zn899       O902   1.927       .  S
Zn899       O904   2.082       .  S
Zn899       O906   1.983       .  S
Zn899       O910   2.000       .  S
Zn900       O902   1.923       .  S
Zn900       O905   1.965       .  S
Zn900       O908   2.056       .  S
Zn900       O911   1.990       .  S
Zn901       O902   1.976       .  S
Zn901       O909   2.068       .  S
Zn901       O912   2.049       .  S
Zn901       O913   2.107       .  S
O903        C915   1.277       .  A
O904        C916   1.277       .  A
O905        C917   1.269       .  A
O906        C915   1.274       .  A
O907        C917   1.277       .  A
O908        C916   1.273       .  A
O909        C918   1.280       .  A
O910        C919   1.275       .  A
O911        C918   1.274       .  A
O912        C919   1.278       .  A
O913        C920   1.282       .  A
O914        C920   1.271       .  A
C915       C1419   1.463       .  S
C916       C1384   1.501       .  S
C917       C1464   1.454       .  S
C918       C2168   1.470       .  S
C919       C1355   1.466       .  S
C920       C2443   1.490       .  S
Zn921       O925   1.935   1_565  S
Zn921       O926   2.083       .  S
Zn921       O930   1.995       .  S
Zn921       O937   2.047       .  S
Zn922       O925   1.953       .  S
Zn922       O927   1.981       .  S
Zn922       O929   2.082       .  S
Zn922       O933   2.042       .  S
Zn923       O925   1.935       .  S
Zn923       O928   1.989   1_545  S
Zn923       O931   2.018       .  S
Zn923       O934   2.076       .  S
Zn924       O925   1.932       .  S
Zn924       O932   2.093   1_545  S
Zn924       O935   2.008       .  S
Zn924       O936   1.991   1_545  S
O926        C938   1.281       .  A
O927        C939   1.269       .  A
O928        C940   1.273       .  A
O929        C938   1.280   1_545  A
O930        C940   1.273       .  A
O931        C939   1.278       .  A
O932        C941   1.278   1_565  A
O933        C942   1.279       .  A
O934        C941   1.278       .  A
O935        C942   1.277       .  A
O936        C943   1.273       .  A
O937        C943   1.280       .  A
C938       C3019   1.506       .  S
C939       C1288   1.448       .  S
C940       C1304   1.452       .  S
C941       C1339   1.511       .  S
C942       C1323   1.467       .  S
C943       C2379   1.466       .  S
Zn944       O948   1.944       .  S
Zn944       O949   2.033       .  S
Zn944       O953   1.980       .  S
Zn944       O960   2.076       .  S
Zn945       O948   1.948       .  S
Zn945       O950   2.113       .  S
Zn945       O952   2.010       .  S
Zn945       O956   2.041   1_565  S
Zn946       O948   1.937       .  S
Zn946       O951   2.030       .  S
Zn946       O954   2.064       .  S
Zn946       O957   2.007   1_565  S
Zn947       O948   1.949   1_545  S
Zn947       O955   1.976       .  S
Zn947       O958   2.018       .  S
Zn947       O959   2.063       .  S
O949        C961   1.278       .  A
O950        C962   1.283       .  A
O951        C963   1.277       .  A
O952        C961   1.276       .  A
O953        C963   1.271       .  A
O954        C962   1.277       .  A
O955        C964   1.267       .  A
O956        C965   1.281       .  A
O957        C964   1.275       .  A
O958        C965   1.277       .  A
O959        C966   1.277   1_545  A
O960        C966   1.278       .  A
C961       C2283   1.467       .  S
C962       C1336   1.509       .  S
C963       C1256   1.457       .  S
C964       C1240   1.446       .  S
C965       C1275   1.473       .  S
C966       C1899   1.501       .  S
Zn967       O971   1.912       .  S
Zn967       O972   1.968       .  S
Zn967       O976   2.059       .  S
Zn967       O983   1.980       .  S
Zn968       O971   1.939       .  S
Zn968       O973   2.009       .  S
Zn968       O975   2.029       .  S
Zn968       O979   2.008       .  S
Zn969       O971   1.927       .  S
Zn969       O974   2.083       .  S
Zn969       O977   1.981       .  S
Zn969       O980   2.002       .  S
Zn970       O971   1.979       .  S
Zn970       O978   2.062       .  S
Zn970       O981   2.120       .  S
Zn970       O982   2.064       .  S
O972        C984   1.271       .  A
O973        C985   1.276       .  A
O974        C986   1.277       .  A
O975        C984   1.276       .  A
O976        C986   1.275       .  A
O977        C985   1.271       .  A
O978        C987   1.281       .  A
O979        C988   1.270       .  A
O980        C987   1.276       .  A
O981        C988   1.284       .  A
O982        C989   1.280       .  A
O983        C989   1.273       .  A
C984       C1243   1.458       .  S
C985       C1291   1.455       .  S
C986       C1224   1.502       .  S
C987       C2907   1.469       .  S
C988       C1211   1.494       .  S
C989       C1803   1.470       .  S
Zn990       O994   1.931       .  S
Zn990       O995   2.022       .  S
Zn990       O999   2.010       .  S
Zn990      O1006   2.016       .  S
Zn991       O994   1.956       .  S
Zn991       O996   2.060       .  S
Zn991       O998   2.103       .  S
Zn991      O1002   2.024       .  S
Zn992       O994   1.923       .  S
Zn992       O997   1.990       .  S
Zn992      O1000   1.991       .  S
Zn992      O1003   2.058       .  S
Zn993       O994   1.922       .  S
Zn993      O1001   2.080       .  S
Zn993      O1004   2.009       .  S
Zn993      O1005   1.983       .  S
O995       C1007   1.273       .  A
O996       C1008   1.282       .  A
O997       C1009   1.271       .  A
O998       C1007   1.282       .  A
O999       C1009   1.274       .  A
O1000      C1008   1.276       .  A
O1001      C1010   1.277       .  A
O1002      C1011   1.275       .  A
O1003      C1010   1.275       .  A
O1004      C1011   1.275       .  A
O1005      C1012   1.273       .  A
O1006      C1012   1.275       .  A
C1007      C2219   1.493       .  S
C1008      C1787   1.468       .  S
C1009      C1259   1.459       .  S
C1010      C1227   1.499       .  S
C1011      C2856   1.467       .  S
C1012      C1307   1.449       .  S
Zn1013     O1017   1.920       .  S
Zn1013     O1018   2.009   1_655  S
Zn1013     O1022   2.024       .  S
Zn1013     O1029   1.992       .  S
Zn1014     O1017   1.898   1_455  S
Zn1014     O1019   2.011       .  S
Zn1014     O1021   1.984       .  S
Zn1014     O1025   2.085       .  S
Zn1015     O1017   1.952   1_455  S
Zn1015     O1020   2.114       .  S
Zn1015     O1023   2.039       .  S
Zn1015     O1026   2.051   1_455  S
Zn1016     O1017   1.941       .  S
Zn1016     O1024   2.023       .  S
Zn1016     O1027   2.105       .  S
Zn1016     O1028   2.000       .  S
O1018      C1030   1.274       .  A
O1019      C1031   1.277       .  A
O1020      C1032   1.283   1_455  A
O1021      C1030   1.272       .  A
O1022      C1032   1.273       .  A
O1023      C1031   1.278       .  A
O1024      C1033   1.280       .  A
O1025      C1034   1.279       .  A
O1026      C1033   1.282       .  A
O1027      C1034   1.280   1_655  A
O1028      C1035   1.273       .  A
O1029      C1035   1.273       .  A
C1030      C1160   1.446       .  S
C1031      C1320   1.468       .  S
C1032      C3304   1.498       .  S
C1033      C2139   1.468       .  S
C1034      C1195   1.514       .  S
C1035      C1179   1.455       .  S
Zn1036     O1040   1.950       .  S
Zn1036     O1041   2.007   1_455  S
Zn1036     O1045   2.008       .  S
Zn1036     O1052   2.097       .  S
Zn1037     O1040   1.962   1_655  S
Zn1037     O1042   2.060       .  S
Zn1037     O1044   1.972       .  S
Zn1037     O1048   2.034       .  S
Zn1038     O1040   1.967       .  S
Zn1038     O1043   2.000       .  S
Zn1038     O1046   2.093       .  S
Zn1038     O1049   2.041       .  S
Zn1039     O1040   1.952       .  S
Zn1039     O1047   2.019       .  S
Zn1039     O1050   2.008   1_455  S
Zn1039     O1051   2.110       .  S
O1041      C1053   1.275       .  A
O1042      C1054   1.275   1_655  A
O1043      C1055   1.271       .  A
O1044      C1053   1.271       .  A
O1045      C1055   1.274       .  A
O1046      C1054   1.279       .  A
O1047      C1056   1.278       .  A
O1048      C1057   1.277       .  A
O1049      C1056   1.280       .  A
O1050      C1057   1.275       .  A
O1051      C1058   1.282       .  A
O1052      C1058   1.279       .  A
C1053      C1147   1.451       .  S
C1054      C1435   1.505       .  S
C1055      C1128   1.451       .  S
C1056      C1272   1.471       .  S
C1057      C2075   1.468       .  S
C1058      C1192   1.518       .  S
Zn1059     O1063   1.945       .  S
Zn1059     O1064   2.031       .  S
Zn1059     O1068   2.011       .  S
Zn1059     O1075   2.110       .  S
Zn1060     O1063   1.952       .  S
Zn1060     O1065   2.088       .  S
Zn1060     O1067   2.048       .  S
Zn1060     O1071   2.007       .  S
Zn1061     O1063   1.943       .  S
Zn1061     O1066   2.037       .  S
Zn1061     O1069   2.050       .  S
Zn1061     O1072   1.994       .  S
Zn1062     O1063   1.930       .  S
Zn1062     O1070   1.980       .  S
Zn1062     O1073   1.999       .  S
Zn1062     O1074   2.054       .  S
O1064      C1076   1.279       .  A
O1065      C1077   1.281       .  A
O1066      C1078   1.278       .  A
O1067      C1076   1.281       .  A
O1068      C1078   1.276       .  A
O1069      C1077   1.277       .  A
O1070      C1079   1.270       .  A
O1071      C1080   1.272       .  A
O1072      C1079   1.272       .  A
O1073      C1080   1.273       .  A
O1074      C1081   1.276       .  A
O1075      C1081   1.282       .  A
C1076      C1368   1.476       .  S
C1077      C1208   1.498       .  S
C1078      C3195   1.468       .  S
C1079      C1163   1.447       .  S
C1080      C1131   1.451       .  S
C1081      C1112   1.508       .  S
Zn1082     O1086   1.933       .  S
Zn1082     O1087   2.045       .  S
Zn1082     O1091   1.980       .  S
Zn1082     O1098   2.022       .  S
Zn1083     O1086   1.952       .  S
Zn1083     O1088   2.000       .  S
Zn1083     O1090   2.079       .  S
Zn1083     O1094   2.031       .  S
Zn1084     O1086   1.929       .  S
Zn1084     O1089   1.983       .  S
Zn1084     O1092   2.007       .  S
Zn1084     O1095   2.071       .  S
Zn1085     O1086   1.937       .  S
Zn1085     O1093   2.091       .  S
Zn1085     O1096   1.996       .  S
Zn1085     O1097   2.020       .  S
O1087      C1099   1.276       .  A
O1088      C1100   1.273       .  A
O1089      C1101   1.272       .  A
O1090      C1099   1.278       .  A
O1091      C1101   1.268       .  A
O1092      C1100   1.275       .  A
O1093      C1102   1.280       .  A
O1094      C1103   1.279       .  A
O1095      C1102   1.277       .  A
O1096      C1103   1.275       .  A
O1097      C1104   1.276       .  A
O1098      C1104   1.277       .  A
C1099      C2008   1.495       .  S
C1100      C1176   1.454       .  S
C1101      C1144   1.442       .  S
C1102      C1115   1.507       .  S
C1103      C3144   1.461       .  S
C1104      C1352   1.468       .  S
C1105      C1110   1.378       .  A
C1105      C1106   1.417       .  A
C1105      O1111   1.334       .  A
C1106      C1107   1.417   1_455  A
C1106      H1117   1.082       .  S
C1107      C1116   1.377       .  A
C1107      C1108   1.378       .  A
C1108      C1109   1.413   1_655  A
C1108      O1114   1.330       .  A
C1109      C1110   1.413       .  A
C1109      H1118   1.082       .  S
C1110      C1113   1.371       .  A
O1111      C1112   1.339       .  A
C1112      C1113   1.399       .  A
C1113      H1119   1.082       .  S
O1114      C1115   1.338       .  A
C1115      C1116   1.401       .  A
C1116      H1120   1.082       .  S
C1121      C1126   1.383       .  A
C1121      C1122   1.400       .  A
C1121      O1127   1.315       .  A
C1122      C1123   1.399       .  A
C1122      H1133   1.082       .  S
C1123      C1132   1.359       .  A
C1123      C1124   1.383       .  A
C1124      C1125   1.399       .  A
C1124      O1130   1.314       .  A
C1125      C1126   1.398       .  A
C1125      H1134   1.082       .  S
C1126      C1129   1.358       .  A
O1127      C1128   1.327       .  A
C1128      C1129   1.385       .  A
C1129      H1135   1.083       .  S
O1130      C1131   1.326       .  A
C1131      C1132   1.386       .  A
C1132      H1136   1.083       .  S
C1137      C1142   1.384       .  A
C1137      C1138   1.398       .  A
C1137      O1143   1.318       .  A
C1138      C1139   1.400       .  A
C1138      H1149   1.082       .  S
C1139      C1148   1.355       .  A
C1139      C1140   1.384       .  A
C1140      C1141   1.392       .  A
C1140      O1146   1.311       .  A
C1141      C1142   1.393       .  A
C1141      H1150   1.082       .  S
C1142      C1145   1.347       .  A
O1143      C1144   1.326       .  A
C1144      C1145   1.382       .  A
C1145      H1151   1.083       .  S
O1146      C1147   1.324       .  A
C1147      C1148   1.389       .  A
C1148      H1152   1.083       .  S
C1153      C1158   1.382       .  A
C1153      C1154   1.401       .  A
C1153      O1159   1.313       .  A
C1154      C1155   1.398       .  A
C1154      H1165   1.082       .  S
C1155      C1164   1.361       .  A
C1155      C1156   1.380       .  A
C1156      C1157   1.395       .  A
C1156      O1162   1.308       .  A
C1157      C1158   1.394       .  A
C1157      H1166   1.082       .  S
C1158      C1161   1.353       .  A
O1159      C1160   1.329       .  A
C1160      C1161   1.385       .  A
C1161      H1167   1.083       .  S
O1162      C1163   1.326       .  A
C1163      C1164   1.389       .  A
C1164      H1168   1.082       .  S
C1169      C1174   1.383       .  A
C1169      C1170   1.398       .  A
C1169      O1175   1.314       .  A
C1170      C1171   1.397       .  A
C1170      H1181   1.082       .  S
C1171      C1180   1.357       .  A
C1171      C1172   1.383       .  A
C1172      C1173   1.399       .  A
C1172      O1178   1.314       .  A
C1173      C1174   1.398       .  A
C1173      H1182   1.082       .  S
C1174      C1177   1.358       .  A
O1175      C1176   1.326       .  A
C1176      C1177   1.387       .  A
C1177      H1183   1.083       .  S
O1178      C1179   1.327       .  A
C1179      C1180   1.387       .  A
C1180      H1184   1.083       .  S
C1185      C1190   1.377       .  A
C1185      C1186   1.417       .  A
C1185      O1191   1.334       .  A
C1186      C1187   1.417       .  A
C1186      H1197   1.082       .  S
C1187      C1196   1.376       .  A
C1187      C1188   1.377       .  A
C1188      C1189   1.419   1_455  A
C1188      O1194   1.336       .  A
C1189      C1190   1.420   1_655  A
C1189      H1198   1.082       .  S
C1190      C1193   1.380       .  A
O1191      C1192   1.341       .  A
C1192      C1193   1.403       .  A
C1193      H1199   1.082   1_455  S
O1194      C1195   1.341       .  A
C1195      C1196   1.401       .  A
C1196      H1200   1.082       .  S
C1201      C1206   1.379       .  A
C1201      C1202   1.408       .  A
C1201      O1207   1.325       .  A
C1202      C1203   1.408       .  A
C1202      H1213   1.083       .  S
C1203      C1212   1.366       .  A
C1203      C1204   1.379       .  A
C1204      C1205   1.416       .  A
C1204      O1210   1.333       .  A
C1205      C1206   1.416       .  A
C1205      H1214   1.082       .  S
C1206      C1209   1.376       .  A
O1207      C1208   1.335       .  A
C1208      C1209   1.400       .  A
C1209      H1215   1.082       .  S
O1210      C1211   1.338       .  A
C1211      C1212   1.395       .  A
C1212      H1216   1.083       .  S
C1217      C1222   1.378       .  A
C1217      C1218   1.416   1_545  A
C1217      O1223   1.331       .  A
C1218      C1219   1.416       .  A
C1218      H1229   1.082       .  S
C1219      C1228   1.377       .  A
C1219      C1220   1.378       .  A
C1220      C1221   1.410       .  A
C1220      O1226   1.326       .  A
C1221      C1222   1.410   1_565  A
C1221      H1230   1.082       .  S
C1222      C1225   1.370       .  A
O1223      C1224   1.339       .  A
C1224      C1225   1.397       .  A
C1225      H1231   1.082       .  S
O1226      C1227   1.336       .  A
C1227      C1228   1.400       .  A
C1228      H1232   1.082       .  S
C1233      C1238   1.384       .  A
C1233      C1234   1.395       .  A
C1233      O1239   1.314       .  A
C1234      C1235   1.396       .  A
C1234      H1245   1.082       .  S
C1235      C1244   1.350       .  A
C1235      C1236   1.383       .  A
C1236      C1237   1.399       .  A
C1236      O1242   1.318       .  A
C1237      C1238   1.400       .  A
C1237      H1246   1.082       .  S
C1238      C1241   1.355       .  A
O1239      C1240   1.324       .  A
C1240      C1241   1.386       .  A
C1241      H1247   1.083       .  S
O1242      C1243   1.327       .  A
C1243      C1244   1.388       .  A
C1244      H1248   1.083       .  S
C1249      C1254   1.382       .  A
C1249      C1250   1.398       .  A
C1249      O1255   1.318       .  A
C1250      C1251   1.400       .  A
C1250      H1261   1.082       .  S
C1251      C1260   1.356       .  A
C1251      C1252   1.384       .  A
C1252      C1253   1.398       .  A
C1252      O1258   1.315       .  A
C1253      C1254   1.397       .  A
C1253      H1262   1.082       .  S
C1254      C1257   1.354       .  A
O1255      C1256   1.327       .  A
C1256      C1257   1.387       .  A
C1257      H1263   1.083       .  S
O1258      C1259   1.327       .  A
C1259      C1260   1.389       .  A
C1260      H1264   1.083       .  S
C1265      C1270   1.381       .  A
C1265      C1266   1.400       .  A
C1265      O1271   1.315       .  A
C1266      C1267   1.398       .  A
C1266      H1277   1.083       .  S
C1267      C1276   1.359       .  A
C1267      C1268   1.380       .  A
C1268      C1269   1.408       .  A
C1268      O1274   1.322       .  A
C1269      C1270   1.407       .  A
C1269      H1278   1.083       .  S
C1270      C1273   1.368       .  A
O1271      C1272   1.329       .  A
C1272      C1273   1.394       .  A
C1273      H1279   1.083       .  S
O1274      C1275   1.334       .  A
C1275      C1276   1.389       .  A
C1276      H1280   1.083       .  S
C1281      C1286   1.385       .  A
C1281      C1282   1.399       .  A
C1281      O1287   1.313       .  A
C1282      C1283   1.397       .  A
C1282      H1293   1.082       .  S
C1283      C1292   1.360       .  A
C1283      C1284   1.384       .  A
C1284      C1285   1.396       .  A
C1284      O1290   1.311       .  A
C1285      C1286   1.395       .  A
C1285      H1294   1.082       .  S
C1286      C1289   1.357       .  A
O1287      C1288   1.325       .  A
C1288      C1289   1.383       .  A
C1289      H1295   1.083       .  S
O1290      C1291   1.325       .  A
C1291      C1292   1.387       .  A
C1292      H1296   1.082       .  S
C1297      C1302   1.380       .  A
C1297      C1298   1.398       .  A
C1297      O1303   1.312       .  A
C1298      C1299   1.398       .  A
C1298      H1309   1.082       .  S
C1299      C1308   1.358       .  A
C1299      C1300   1.382       .  A
C1300      C1301   1.401       .  A
C1300      O1306   1.312       .  A
C1301      C1302   1.397       .  A
C1301      H1310   1.082       .  S
C1302      C1305   1.360       .  A
O1303      C1304   1.328       .  A
C1304      C1305   1.388       .  A
C1305      H1311   1.082       .  S
O1306      C1307   1.328       .  A
C1307      C1308   1.387       .  A
C1308      H1312   1.083       .  S
C1313      C1318   1.381       .  A
C1313      C1314   1.396       .  A
C1313      O1319   1.313       .  A
C1314      C1315   1.396       .  A
C1314      H1325   1.083       .  S
C1315      C1324   1.352       .  A
C1315      C1316   1.380       .  A
C1316      C1317   1.409       .  A
C1316      O1322   1.324       .  A
C1317      C1318   1.409       .  A
C1317      H1326   1.083       .  S
C1318      C1321   1.368       .  A
O1319      C1320   1.327       .  A
C1320      C1321   1.395       .  A
C1321      H1327   1.083       .  S
O1322      C1323   1.333       .  A
C1323      C1324   1.387       .  A
C1324      H1328   1.083       .  S
C1329      C1334   1.378       .  A
C1329      C1330   1.412   1_565  A
C1329      O1335   1.327       .  A
C1330      C1331   1.411       .  A
C1330      H1341   1.082       .  S
C1331      C1340   1.372       .  A
C1331      C1332   1.377   1_545  A
C1332      C1333   1.421       .  A
C1332      O1338   1.335       .  A
C1333      C1334   1.420       .  A
C1333      H1342   1.082       .  S
C1334      C1337   1.383       .  A
O1335      C1336   1.337       .  A
C1336      C1337   1.403       .  A
C1337      H1343   1.082       .  S
O1338      C1339   1.342   1_565  A
C1339      C1340   1.398       .  A
C1340      H1344   1.082       .  S
C1345      C1350   1.381       .  A
C1345      C1346   1.399       .  A
C1345      O1351   1.316       .  A
C1346      C1347   1.399       .  A
C1346      H1357   1.083       .  S
C1347      C1356   1.356       .  A
C1347      C1348   1.381       .  A
C1348      C1349   1.405       .  A
C1348      O1354   1.322       .  A
C1349      C1350   1.405       .  A
C1349      H1358   1.083       .  S
C1350      C1353   1.364       .  A
O1351      C1352   1.329       .  A
C1352      C1353   1.392       .  A
C1353      H1359   1.083       .  S
O1354      C1355   1.331       .  A
C1355      C1356   1.388       .  A
C1356      H1360   1.083       .  S
C1361      C1366   1.380       .  A
C1361      C1362   1.401       .  A
C1361      O1367   1.318       .  A
C1362      C1363   1.401       .  A
C1362      H1373   1.083       .  S
C1363      C1372   1.357       .  A
C1363      C1364   1.380       .  A
C1364      C1365   1.408       .  A
C1364      O1370   1.325       .  A
C1365      C1366   1.408       .  A
C1365      H1374   1.082       .  S
C1366      C1369   1.368       .  A
O1367      C1368   1.330       .  A
C1368      C1369   1.394       .  A
C1369      H1375   1.082       .  S
O1370      C1371   1.333       .  A
C1371      C1372   1.391       .  A
C1372      H1376   1.083       .  S
C1377      C1382   1.378       .  A
C1377      C1378   1.414       .  A
C1377      O1383   1.328       .  A
C1378      C1379   1.413   1_655  A
C1378      H1389   1.082       .  S
C1379      C1388   1.375       .  A
C1379      C1380   1.378       .  A
C1380      C1381   1.414       .  A
C1380      O1386   1.328       .  A
C1381      C1382   1.413   1_455  A
C1381      H1390   1.082       .  S
C1382      C1385   1.375       .  A
O1383      C1384   1.338       .  A
C1384      C1385   1.398       .  A
C1385      H1391   1.082       .  S
O1386      C1387   1.337       .  A
C1387      C1388   1.399       .  A
C1388      H1392   1.082       .  S
C1393      C1398   1.383       .  A
C1393      C1394   1.399       .  A
C1393      O1399   1.318       .  A
C1394      C1395   1.400       .  A
C1394      H1405   1.082       .  S
C1395      C1404   1.354       .  A
C1395      C1396   1.383       .  A
C1396      C1397   1.396       .  A
C1396      O1402   1.316       .  A
C1397      C1398   1.397       .  A
C1397      H1406   1.082       .  S
C1398      C1401   1.350       .  A
O1399      C1400   1.327       .  A
C1400      C1401   1.388       .  A
C1401      H1407   1.083       .  S
O1402      C1403   1.326       .  A
C1403      C1404   1.388       .  A
C1404      H1408   1.083       .  S
C1409      C1414   1.384       .  A
C1409      C1410   1.395       .  A
C1409      O1415   1.315       .  A
C1410      C1411   1.396       .  A
C1410      H1421   1.082       .  S
C1411      C1420   1.351       .  A
C1411      C1412   1.383       .  A
C1412      C1413   1.401       .  A
C1412      O1418   1.320       .  A
C1413      C1414   1.402       .  A
C1413      H1422   1.082       .  S
C1414      C1417   1.356       .  A
O1415      C1416   1.324       .  A
C1416      C1417   1.386       .  A
C1417      H1423   1.083       .  S
O1418      C1419   1.329       .  A
C1419      C1420   1.387       .  A
C1420      H1424   1.083       .  S
C1425      C1430   1.378   1_455  A
C1425      C1426   1.415       .  A
C1425      O1431   1.330       .  A
C1426      C1427   1.415       .  A
C1426      H1437   1.082       .  S
C1427      C1436   1.376       .  A
C1427      C1428   1.378   1_455  A
C1428      C1429   1.414       .  A
C1428      O1434   1.329       .  A
C1429      C1430   1.413       .  A
C1429      H1438   1.082       .  S
C1430      C1433   1.374       .  A
O1431      C1432   1.339   1_455  A
C1432      C1433   1.398       .  A
C1433      H1439   1.082       .  S
O1434      C1435   1.338   1_655  A
C1435      C1436   1.400       .  A
C1436      H1440   1.082       .  S
C1441      C1446   1.383       .  A
C1441      C1442   1.399       .  A
C1441      O1447   1.310       .  A
C1442      C1443   1.395       .  A
C1442      H1453   1.082       .  S
C1443      C1452   1.360       .  A
C1443      C1444   1.382       .  A
C1444      C1445   1.399       .  A
C1444      O1450   1.311       .  A
C1445      C1446   1.397       .  A
C1445      H1454   1.082       .  S
C1446      C1449   1.361       .  A
O1447      C1448   1.327       .  A
C1448      C1449   1.387       .  A
C1449      H1455   1.082       .  S
O1450      C1451   1.326       .  A
C1451      C1452   1.384       .  A
C1452      H1456   1.082       .  S
C1457      C1462   1.382       .  A
C1457      C1458   1.397       .  A
C1457      O1463   1.310       .  A
C1458      C1459   1.395       .  A
C1458      H1469   1.082       .  S
C1459      C1468   1.357       .  A
C1459      C1460   1.383       .  A
C1460      C1461   1.400       .  A
C1460      O1466   1.313       .  A
C1461      C1462   1.398       .  A
C1461      H1470   1.082       .  S
C1462      C1465   1.361       .  A
O1463      C1464   1.326       .  A
C1464      C1465   1.387       .  A
C1465      H1471   1.082       .  S
O1466      C1467   1.327       .  A
C1467      C1468   1.385       .  A
C1468      H1472   1.082       .  S
C1473      C1478   1.378       .  A
C1473      C1474   1.415       .  A
C1473      O1479   1.331       .  A
C1474      C1475   1.414       .  A
C1474      H1485   1.082       .  S
C1475      C1484   1.373       .  A
C1475      C1476   1.378       .  A
C1476      C1477   1.417       .  A
C1476      O1482   1.333       .  A
C1477      C1478   1.417       .  A
C1477      H1486   1.082       .  S
C1478      C1481   1.378       .  A
O1479      C1480   1.339       .  A
C1480      C1481   1.401       .  A
C1481      H1487   1.082       .  S
O1482      C1483   1.339       .  A
C1483      C1484   1.399       .  A
C1484      H1488   1.082       .  S
C1489      C1494   1.378       .  A
C1489      C1490   1.408       .  A
C1489      O1495   1.325       .  A
C1490      C1491   1.408       .  A
C1490      H1501   1.082       .  S
C1491      C1500   1.366       .  A
C1491      C1492   1.378       .  A
C1492      C1493   1.419       .  A
C1492      O1498   1.334       .  A
C1493      C1494   1.419       .  A
C1493      H1502   1.082       .  S
C1494      C1497   1.381       .  A
O1495      C1496   1.335       .  A
C1496      C1497   1.401       .  A
C1497      H1503   1.082       .  S
O1498      C1499   1.341       .  A
C1499      C1500   1.396       .  A
C1500      H1504   1.083       .  S
C1505      C1510   1.378       .  A
C1505      C1506   1.412       .  A
C1505      O1511   1.328       .  A
C1506      C1507   1.411   1_556  A
C1506      H1517   1.082       .  S
C1507      C1516   1.372       .  A
C1507      C1508   1.378       .  A
C1508      C1509   1.418       .  A
C1508      O1514   1.332       .  A
C1509      C1510   1.417   1_554  A
C1509      H1518   1.082       .  S
C1510      C1513   1.379       .  A
O1511      C1512   1.337       .  A
C1512      C1513   1.400       .  A
C1513      H1519   1.082       .  S
O1514      C1515   1.339       .  A
C1515      C1516   1.397       .  A
C1516      H1520   1.082       .  S
C1521      C1526   1.381       .  A
C1521      C1522   1.397       .  A
C1521      O1527   1.315       .  A
C1522      C1523   1.398       .  A
C1522      H1533   1.082       .  S
C1523      C1532   1.354       .  A
C1523      C1524   1.383       .  A
C1524      C1525   1.402       .  A
C1524      O1530   1.318       .  A
C1525      C1526   1.400       .  A
C1525      H1534   1.082       .  S
C1526      C1529   1.359       .  A
O1527      C1528   1.326       .  A
C1528      C1529   1.389       .  A
C1529      H1535   1.082       .  S
O1530      C1531   1.328       .  A
C1531      C1532   1.386       .  A
C1532      H1536   1.083       .  S
C1537      C1542   1.384       .  A
C1537      C1538   1.397       .  A
C1537      O1543   1.318       .  A
C1538      C1539   1.399       .  A
C1538      H1549   1.082       .  S
C1539      C1548   1.352       .  A
C1539      C1540   1.385       .  A
C1540      C1541   1.392       .  A
C1540      O1546   1.313       .  A
C1541      C1542   1.394       .  A
C1541      H1550   1.082       .  S
C1542      C1545   1.346       .  A
O1543      C1544   1.326       .  A
C1544      C1545   1.386       .  A
C1545      H1551   1.083       .  S
O1546      C1547   1.323       .  A
C1547      C1548   1.385       .  A
C1548      H1552   1.083       .  S
C1553      C1558   1.381       .  A
C1553      C1554   1.402       .  A
C1553      O1559   1.318       .  A
C1554      C1555   1.402       .  A
C1554      H1565   1.083       .  S
C1555      C1564   1.360       .  A
C1555      C1556   1.381       .  A
C1556      C1557   1.403       .  A
C1556      O1562   1.319       .  A
C1557      C1558   1.402       .  A
C1557      H1566   1.083       .  S
C1558      C1561   1.361       .  A
O1559      C1560   1.330       .  A
C1560      C1561   1.391       .  A
C1561      H1567   1.083       .  S
O1562      C1563   1.331       .  A
C1563      C1564   1.391       .  A
C1564      H1568   1.083       .  S
C1569      C1574   1.381       .  A
C1569      C1570   1.391       .  A
C1569      O1575   1.306       .  A
C1570      C1571   1.390       .  A
C1570      H1581   1.082       .  S
C1571      C1580   1.347       .  A
C1571      C1572   1.381       .  A
C1572      C1573   1.402       .  A
C1572      O1578   1.315       .  A
C1573      C1574   1.401       .  A
C1573      H1582   1.082       .  S
C1574      C1577   1.361       .  A
O1575      C1576   1.323       .  A
C1576      C1577   1.391       .  A
C1577      H1583   1.082       .  S
O1578      C1579   1.330       .  A
C1579      C1580   1.385       .  A
C1580      H1584   1.083       .  S
C1585      C1590   1.383       .  A
C1585      C1586   1.399       .  A
C1585      O1591   1.319       .  A
C1586      C1587   1.401       .  A
C1586      H1597   1.082       .  S
C1587      C1596   1.356       .  A
C1587      C1588   1.385       .  A
C1588      C1589   1.394       .  A
C1588      O1594   1.314       .  A
C1589      C1590   1.395       .  A
C1589      H1598   1.082       .  S
C1590      C1593   1.350       .  A
O1591      C1592   1.328       .  A
C1592      C1593   1.386       .  A
C1593      H1599   1.083       .  S
O1594      C1595   1.324       .  A
C1595      C1596   1.386       .  A
C1596      H1600   1.083       .  S
C1601      C1606   1.381       .  A
C1601      C1602   1.395       .  A
C1601      O1607   1.310       .  A
C1602      C1603   1.394       .  A
C1602      H1613   1.083       .  S
C1603      C1612   1.353       .  A
C1603      C1604   1.381       .  A
C1604      C1605   1.405       .  A
C1604      O1610   1.319       .  A
C1605      C1606   1.404       .  A
C1605      H1614   1.083       .  S
C1606      C1609   1.366       .  A
O1607      C1608   1.327       .  A
C1608      C1609   1.392       .  A
C1609      H1615   1.083       .  S
O1610      C1611   1.332       .  A
C1611      C1612   1.387       .  A
C1612      H1616   1.083       .  S
C1617      C1622   1.378       .  A
C1617      C1618   1.413       .  A
C1617      O1623   1.328       .  A
C1618      C1619   1.412       .  A
C1618      H1629   1.082       .  S
C1619      C1628   1.373       .  A
C1619      C1620   1.378       .  A
C1620      C1621   1.415       .  A
C1620      O1626   1.330       .  A
C1621      C1622   1.414       .  A
C1621      H1630   1.082       .  S
C1622      C1625   1.376       .  A
O1623      C1624   1.337       .  A
C1624      C1625   1.399       .  A
C1625      H1631   1.082       .  S
O1626      C1627   1.338       .  A
C1627      C1628   1.398       .  A
C1628      H1632   1.082       .  S
C1633      C1638   1.381       .  A
C1633      C1634   1.396       .  A
C1633      O1639   1.311       .  A
C1634      C1635   1.394       .  A
C1634      H1645   1.083       .  S
C1635      C1644   1.352       .  A
C1635      C1636   1.380       .  A
C1636      C1637   1.411       .  A
C1636      O1642   1.325       .  A
C1637      C1638   1.410       .  A
C1637      H1646   1.083       .  S
C1638      C1641   1.372       .  A
O1639      C1640   1.327       .  A
C1640      C1641   1.395       .  A
C1641      H1647   1.082       .  S
O1642      C1643   1.335       .  A
C1643      C1644   1.387       .  A
C1644      H1648   1.083       .  S
C1649      C1654   1.380       .  A
C1649      C1650   1.411       .  A
C1649      O1655   1.325       .  A
C1650      C1651   1.410       .  A
C1650      H1661   1.083       .  S
C1651      C1660   1.373       .  A
C1651      C1652   1.380       .  A
C1652      C1653   1.397       .  A
C1652      O1658   1.312       .  A
C1653      C1654   1.395       .  A
C1653      H1662   1.083       .  S
C1654      C1657   1.354       .  A
O1655      C1656   1.335       .  A
C1656      C1657   1.388       .  A
C1657      H1663   1.083       .  S
O1658      C1659   1.328       .  A
C1659      C1660   1.396       .  A
C1660      H1664   1.082       .  S
C1665      C1670   1.377       .  A
C1665      C1666   1.420   1_554  A
C1665      O1671   1.336       .  A
C1666      C1667   1.420       .  A
C1666      H1677   1.082       .  S
C1667      C1676   1.381       .  A
C1667      C1668   1.378       .  A
C1668      C1669   1.412       .  A
C1668      O1674   1.328       .  A
C1669      C1670   1.412   1_556  A
C1669      H1678   1.082       .  S
C1670      C1673   1.370       .  A
O1671      C1672   1.341       .  A
C1672      C1673   1.398       .  A
C1673      H1679   1.082       .  S
O1674      C1675   1.337       .  A
C1675      C1676   1.403       .  A
C1676      H1680   1.082       .  S
C1681      C1686   1.384       .  A
C1681      C1682   1.399       .  A
C1681      O1687   1.311       .  A
C1682      C1683   1.396       .  A
C1682      H1693   1.082       .  S
C1683      C1692   1.361       .  A
C1683      C1684   1.382       .  A
C1684      C1685   1.399       .  A
C1684      O1690   1.312       .  A
C1685      C1686   1.398       .  A
C1685      H1694   1.082       .  S
C1686      C1689   1.361       .  A
O1687      C1688   1.326       .  A
C1688      C1689   1.385       .  A
C1689      H1695   1.082       .  S
O1690      C1691   1.328       .  A
C1691      C1692   1.386       .  A
C1692      H1696   1.082       .  S
C1697      C1702   1.381       .  A
C1697      C1698   1.403       .  A
C1697      O1703   1.321       .  A
C1698      C1699   1.405       .  A
C1698      H1709   1.082       .  S
C1699      C1708   1.360       .  A
C1699      C1700   1.384       .  A
C1700      C1701   1.390       .  A
C1700      O1706   1.308       .  A
C1701      C1702   1.389       .  A
C1701      H1710   1.082       .  S
C1702      C1705   1.343       .  A
O1703      C1704   1.330       .  A
C1704      C1705   1.382       .  A
C1705      H1711   1.083       .  S
O1706      C1707   1.322       .  A
C1707      C1708   1.393       .  A
C1708      H1712   1.083       .  S
C1713      C1718   1.379   1_556  A
C1713      C1714   1.409       .  A
C1713      O1719   1.327       .  A
C1714      C1715   1.410       .  A
C1714      H1725   1.082       .  S
C1715      C1724   1.366       .  A
C1715      C1716   1.379   1_556  A
C1716      C1717   1.412       .  A
C1716      O1722   1.330       .  A
C1717      C1718   1.412       .  A
C1717      H1726   1.082       .  S
C1718      C1721   1.369       .  A
O1719      C1720   1.335   1_556  A
C1720      C1721   1.398       .  A
C1721      H1727   1.083       .  S
O1722      C1723   1.337       .  A
C1723      C1724   1.396   1_554  A
C1724      H1728   1.082       .  S
C1729      C1734   1.383       .  A
C1729      C1730   1.398       .  A
C1729      O1735   1.310       .  A
C1730      C1731   1.396       .  A
C1730      H1741   1.082       .  S
C1731      C1740   1.361       .  A
C1731      C1732   1.384       .  A
C1732      C1733   1.399       .  A
C1732      O1738   1.309       .  A
C1733      C1734   1.395       .  A
C1733      H1742   1.082       .  S
C1734      C1737   1.362       .  A
O1735      C1736   1.325       .  A
C1736      C1737   1.384       .  A
C1737      H1743   1.082       .  S
O1738      C1739   1.326       .  A
C1739      C1740   1.386       .  A
C1740      H1744   1.083       .  S
C1745      C1750   1.383       .  A
C1745      C1746   1.399       .  A
C1745      O1751   1.314       .  A
C1746      C1747   1.398       .  A
C1746      H1757   1.082       .  S
C1747      C1756   1.359       .  A
C1747      C1748   1.384       .  A
C1748      C1749   1.397       .  A
C1748      O1754   1.312       .  A
C1749      C1750   1.396       .  A
C1749      H1758   1.082       .  S
C1750      C1753   1.356       .  A
O1751      C1752   1.327       .  A
C1752      C1753   1.386       .  A
C1753      H1759   1.083       .  S
O1754      C1755   1.325       .  A
C1755      C1756   1.385       .  A
C1756      H1760   1.083       .  S
C1761      C1766   1.378   1_554  A
C1761      C1762   1.414       .  A
C1761      O1767   1.330       .  A
C1762      C1763   1.414       .  A
C1762      H1773   1.082       .  S
C1763      C1772   1.373       .  A
C1763      C1764   1.378       .  A
C1764      C1765   1.415   1_554  A
C1764      O1770   1.332   1_554  A
C1765      C1766   1.415       .  A
C1765      H1774   1.082       .  S
C1766      C1769   1.375       .  A
O1767      C1768   1.338       .  A
C1768      C1769   1.398   1_554  A
C1769      H1775   1.082       .  S
O1770      C1771   1.338   1_556  A
C1771      C1772   1.399       .  A
C1772      H1776   1.082       .  S
C1777      C1782   1.381       .  A
C1777      C1778   1.399       .  A
C1777      O1783   1.317       .  A
C1778      C1779   1.399       .  A
C1778      H1789   1.083       .  S
C1779      C1788   1.355       .  A
C1779      C1780   1.381       .  A
C1780      C1781   1.405       .  A
C1780      O1786   1.322       .  A
C1781      C1782   1.405       .  A
C1781      H1790   1.083       .  S
C1782      C1785   1.364       .  A
O1783      C1784   1.329       .  A
C1784      C1785   1.393       .  A
C1785      H1791   1.083       .  S
O1786      C1787   1.331       .  A
C1787      C1788   1.390       .  A
C1788      H1792   1.083       .  S
C1793      C1798   1.381       .  A
C1793      C1794   1.396       .  A
C1793      O1799   1.312       .  A
C1794      C1795   1.395       .  A
C1794      H1805   1.083       .  S
C1795      C1804   1.352       .  A
C1795      C1796   1.380       .  A
C1796      C1797   1.409       .  A
C1796      O1802   1.325       .  A
C1797      C1798   1.409       .  A
C1797      H1806   1.083       .  S
C1798      C1801   1.369       .  A
O1799      C1800   1.327       .  A
C1800      C1801   1.394       .  A
C1801      H1807   1.082       .  S
O1802      C1803   1.333       .  A
C1803      C1804   1.388       .  A
C1804      H1808   1.083       .  S
C1809      C1814   1.378       .  A
C1809      C1810   1.413       .  A
C1809      O1815   1.329       .  A
C1810      C1811   1.413       .  A
C1810      H1821   1.082       .  S
C1811      C1820   1.373       .  A
C1811      C1812   1.379       .  A
C1812      C1813   1.410       .  A
C1812      O1818   1.326       .  A
C1813      C1814   1.410       .  A
C1813      H1822   1.082       .  S
C1814      C1817   1.370       .  A
O1815      C1816   1.338       .  A
C1816      C1817   1.396       .  A
C1817      H1823   1.082       .  S
O1818      C1819   1.335       .  A
C1819      C1820   1.398       .  A
C1820      H1824   1.082       .  S
C1825      C1830   1.378       .  A
C1825      C1826   1.412   1_545  A
C1825      O1831   1.326       .  A
C1826      C1827   1.411       .  A
C1826      H1837   1.082   1_565  S
C1827      C1836   1.372       .  A
C1827      C1828   1.378       .  A
C1828      C1829   1.418       .  A
C1828      O1834   1.333       .  A
C1829      C1830   1.418   1_565  A
C1829      H1838   1.082       .  S
C1830      C1833   1.381       .  A
O1831      C1832   1.337       .  A
C1832      C1833   1.401       .  A
C1833      H1839   1.082       .  S
O1834      C1835   1.340       .  A
C1835      C1836   1.398       .  A
C1836      H1840   1.082       .  S
C1841      C1846   1.382       .  A
C1841      C1842   1.398       .  A
C1841      O1847   1.310       .  A
C1842      C1843   1.396       .  A
C1842      H1853   1.082       .  S
C1843      C1852   1.359       .  A
C1843      C1844   1.382       .  A
C1844      C1845   1.402       .  A
C1844      O1850   1.315       .  A
C1845      C1846   1.400       .  A
C1845      H1854   1.082       .  S
C1846      C1849   1.365       .  A
O1847      C1848   1.326       .  A
C1848      C1849   1.387       .  A
C1849      H1855   1.082       .  S
O1850      C1851   1.329       .  A
C1851      C1852   1.387       .  A
C1852      H1856   1.082       .  S
C1857      C1862   1.383       .  A
C1857      C1858   1.395       .  A
C1857      O1863   1.314       .  A
C1858      C1859   1.396       .  A
C1858      H1869   1.082       .  S
C1859      C1868   1.349       .  A
C1859      C1860   1.384       .  A
C1860      C1861   1.398       .  A
C1860      O1866   1.318       .  A
C1861      C1862   1.399       .  A
C1861      H1870   1.082       .  S
C1862      C1865   1.354       .  A
O1863      C1864   1.325       .  A
C1864      C1865   1.388       .  A
C1865      H1871   1.083       .  S
O1866      C1867   1.326       .  A
C1867      C1868   1.383       .  A
C1868      H1872   1.083       .  S
C1873      C1878   1.381       .  A
C1873      C1874   1.403       .  A
C1873      O1879   1.319       .  A
C1874      C1875   1.403       .  A
C1874      H1885   1.083       .  S
C1875      C1884   1.362       .  A
C1875      C1876   1.381       .  A
C1876      C1877   1.400       .  A
C1876      O1882   1.316       .  A
C1877      C1878   1.399       .  A
C1877      H1886   1.083       .  S
C1878      C1881   1.357       .  A
O1879      C1880   1.331       .  A
C1880      C1881   1.390       .  A
C1881      H1887   1.083       .  S
O1882      C1883   1.329       .  A
C1883      C1884   1.392       .  A
C1884      H1888   1.083       .  S
C1889      C1894   1.378   1_545  A
C1889      C1890   1.414       .  A
C1889      O1895   1.331       .  A
C1890      C1891   1.414       .  A
C1890      H1901   1.082       .  S
C1891      C1900   1.373       .  A
C1891      C1892   1.378   1_545  A
C1892      C1893   1.413       .  A
C1892      O1898   1.329       .  A
C1893      C1894   1.413       .  A
C1893      H1902   1.082       .  S
C1894      C1897   1.372       .  A
O1895      C1896   1.338   1_545  A
C1896      C1897   1.399       .  A
C1897      H1903   1.082       .  S
O1898      C1899   1.337       .  A
C1899      C1900   1.399   1_565  A
C1900      H1904   1.082       .  S
C1905      C1910   1.382       .  A
C1905      C1906   1.399       .  A
C1905      O1911   1.311       .  A
C1906      C1907   1.397       .  A
C1906      H1917   1.082       .  S
C1907      C1916   1.362       .  A
C1907      C1908   1.383       .  A
C1908      C1909   1.401       .  A
C1908      O1914   1.311       .  A
C1909      C1910   1.397       .  A
C1909      H1918   1.082       .  S
C1910      C1913   1.364       .  A
O1911      C1912   1.327       .  A
C1912      C1913   1.386       .  A
C1913      H1919   1.082       .  S
O1914      C1915   1.328       .  A
C1915      C1916   1.386       .  A
C1916      H1920   1.082       .  S
C1921      C1926   1.383       .  A
C1921      C1922   1.399       .  A
C1921      O1927   1.311       .  A
C1922      C1923   1.396       .  A
C1922      H1933   1.082       .  S
C1923      C1932   1.359       .  A
C1923      C1924   1.383       .  A
C1924      C1925   1.399       .  A
C1924      O1930   1.313       .  A
C1925      C1926   1.397       .  A
C1925      H1934   1.082       .  S
C1926      C1929   1.361       .  A
O1927      C1928   1.326       .  A
C1928      C1929   1.387       .  A
C1929      H1935   1.082       .  S
O1930      C1931   1.327       .  A
C1931      C1932   1.387       .  A
C1932      H1936   1.082       .  S
C1937      C1942   1.381       .  A
C1937      C1938   1.399       .  A
C1937      O1943   1.316       .  A
C1938      C1939   1.399       .  A
C1938      H1949   1.083       .  S
C1939      C1948   1.355       .  A
C1939      C1940   1.380       .  A
C1940      C1941   1.407       .  A
C1940      O1946   1.324       .  A
C1941      C1942   1.407       .  A
C1941      H1950   1.083       .  S
C1942      C1945   1.366       .  A
O1943      C1944   1.329       .  A
C1944      C1945   1.394       .  A
C1945      H1951   1.083       .  S
O1946      C1947   1.333       .  A
C1947      C1948   1.391       .  A
C1948      H1952   1.083       .  S
C1953      C1958   1.378   1_565  A
C1953      C1954   1.418       .  A
C1953      O1959   1.335       .  A
C1954      C1955   1.419       .  A
C1954      H1965   1.082       .  S
C1955      C1964   1.378       .  A
C1955      C1956   1.378   1_565  A
C1956      C1957   1.414       .  A
C1956      O1962   1.331       .  A
C1957      C1958   1.414       .  A
C1957      H1966   1.082       .  S
C1958      C1961   1.372       .  A
O1959      C1960   1.340       .  A
C1960      C1961   1.399   1_565  A
C1961      H1967   1.082       .  S
O1962      C1963   1.338   1_545  A
C1963      C1964   1.401       .  A
C1964      H1968   1.082       .  S
C1969      C1974   1.380       .  A
C1969      C1970   1.408       .  A
C1969      O1975   1.326       .  A
C1970      C1971   1.409       .  A
C1970      H1981   1.083       .  S
C1971      C1980   1.367       .  A
C1971      C1972   1.381       .  A
C1972      C1973   1.395       .  A
C1972      O1978   1.314       .  A
C1973      C1974   1.395       .  A
C1973      H1982   1.083       .  S
C1974      C1977   1.349       .  A
O1975      C1976   1.334       .  A
C1976      C1977   1.388       .  A
C1977      H1983   1.083       .  S
O1978      C1979   1.326       .  A
C1979      C1980   1.394       .  A
C1980      H1984   1.082       .  S
C1985      C1990   1.380       .  A
C1985      C1986   1.409       .  A
C1985      O1991   1.326       .  A
C1986      C1987   1.409       .  A
C1986      H1997   1.082       .  S
C1987      C1996   1.368       .  A
C1987      C1988   1.381       .  A
C1988      C1989   1.398       .  A
C1988      O1994   1.316       .  A
C1989      C1990   1.398       .  A
C1989      H1998   1.083       .  S
C1990      C1993   1.354       .  A
O1991      C1992   1.334       .  A
C1992      C1993   1.389       .  A
C1993      H1999   1.083       .  S
O1994      C1995   1.328       .  A
C1995      C1996   1.396       .  A
C1996      H2000   1.082       .  S
C2001      C2006   1.378       .  A
C2001      C2002   1.416       .  A
C2001      O2007   1.331       .  A
C2002      C2003   1.416       .  A
C2002      H2013   1.082       .  S
C2003      C2012   1.378       .  A
C2003      C2004   1.379       .  A
C2004      C2005   1.408       .  A
C2004      O2010   1.323       .  A
C2005      C2006   1.407       .  A
C2005      H2014   1.082       .  S
C2006      C2009   1.367       .  A
O2007      C2008   1.338       .  A
C2008      C2009   1.395       .  A
C2009      H2015   1.083       .  S
O2010      C2011   1.334       .  A
C2011      C2012   1.399       .  A
C2012      H2016   1.082       .  S
C2017      C2022   1.378       .  A
C2017      C2018   1.412   1_565  A
C2017      O2023   1.328       .  A
C2018      C2019   1.412       .  A
C2018      H2029   1.082   1_545  S
C2019      C2028   1.372       .  A
C2019      C2020   1.378       .  A
C2020      C2021   1.416       .  A
C2020      O2026   1.331       .  A
C2021      C2022   1.415   1_545  A
C2021      H2030   1.082       .  S
C2022      C2025   1.376       .  A
O2023      C2024   1.337       .  A
C2024      C2025   1.400       .  A
C2025      H2031   1.082       .  S
O2026      C2027   1.339       .  A
C2027      C2028   1.398       .  A
C2028      H2032   1.082       .  S
C2033      C2038   1.383       .  A
C2033      C2034   1.396       .  A
C2033      O2039   1.315       .  A
C2034      C2035   1.397       .  A
C2034      H2045   1.082       .  S
C2035      C2044   1.351       .  A
C2035      C2036   1.384       .  A
C2036      C2037   1.397       .  A
C2036      O2042   1.316       .  A
C2037      C2038   1.398       .  A
C2037      H2046   1.082       .  S
C2038      C2041   1.354       .  A
O2039      C2040   1.326       .  A
C2040      C2041   1.386       .  A
C2041      H2047   1.083       .  S
O2042      C2043   1.326       .  A
C2043      C2044   1.387       .  A
C2044      H2048   1.083       .  S
C2049      C2054   1.383       .  A
C2049      C2050   1.398       .  A
C2049      O2055   1.318       .  A
C2050      C2051   1.400       .  A
C2050      H2061   1.082       .  S
C2051      C2060   1.353       .  A
C2051      C2052   1.384       .  A
C2052      C2053   1.397       .  A
C2052      O2058   1.317       .  A
C2053      C2054   1.398       .  A
C2053      H2062   1.082       .  S
C2054      C2057   1.351       .  A
O2055      C2056   1.327       .  A
C2056      C2057   1.389       .  A
C2057      H2063   1.083       .  S
O2058      C2059   1.325       .  A
C2059      C2060   1.386       .  A
C2060      H2064   1.083       .  S
C2065      C2070   1.380       .  A
C2065      C2066   1.409       .  A
C2065      O2071   1.325       .  A
C2066      C2067   1.409       .  A
C2066      H2077   1.083       .  S
C2067      C2076   1.368       .  A
C2067      C2068   1.381       .  A
C2068      C2069   1.396       .  A
C2068      O2074   1.313       .  A
C2069      C2070   1.395       .  A
C2069      H2078   1.083       .  S
C2070      C2073   1.350       .  A
O2071      C2072   1.334       .  A
C2072      C2073   1.389       .  A
C2073      H2079   1.083       .  S
O2074      C2075   1.327       .  A
C2075      C2076   1.395       .  A
C2076      H2080   1.082       .  S
C2081      C2086   1.378   1_545  A
C2081      C2082   1.419       .  A
C2081      O2087   1.335       .  A
C2082      C2083   1.419       .  A
C2082      H2093   1.082       .  S
C2083      C2092   1.379       .  A
C2083      C2084   1.378   1_545  A
C2084      C2085   1.409       .  A
C2084      O2090   1.327       .  A
C2085      C2086   1.410       .  A
C2085      H2094   1.082       .  S
C2086      C2089   1.367       .  A
O2087      C2088   1.340   1_545  A
C2088      C2089   1.396       .  A
C2089      H2095   1.083       .  S
O2090      C2091   1.336       .  A
C2091      C2092   1.402   1_565  A
C2092      H2096   1.082       .  S
C2097      C2102   1.383       .  A
C2097      C2098   1.404       .  A
C2097      O2103   1.314       .  A
C2098      C2099   1.401       .  A
C2098      H2109   1.082       .  S
C2099      C2108   1.367       .  A
C2099      C2100   1.381       .  A
C2100      C2101   1.394       .  A
C2100      O2106   1.306       .  A
C2101      C2102   1.391       .  A
C2101      H2110   1.082       .  S
C2102      C2105   1.353       .  A
O2103      C2104   1.328       .  A
C2104      C2105   1.384       .  A
C2105      H2111   1.083       .  S
O2106      C2107   1.326       .  A
C2107      C2108   1.390       .  A
C2108      H2112   1.082       .  S
C2113      C2118   1.384       .  A
C2113      C2114   1.399       .  A
C2113      O2119   1.311       .  A
C2114      C2115   1.396       .  A
C2114      H2125   1.082       .  S
C2115      C2124   1.361       .  A
C2115      C2116   1.382       .  A
C2116      C2117   1.397       .  A
C2116      O2122   1.310       .  A
C2117      C2118   1.395       .  A
C2117      H2126   1.082       .  S
C2118      C2121   1.359       .  A
O2119      C2120   1.326       .  A
C2120      C2121   1.386       .  A
C2121      H2127   1.083       .  S
O2122      C2123   1.326       .  A
C2123      C2124   1.387       .  A
C2124      H2128   1.082       .  S
C2129      C2134   1.381       .  A
C2129      C2130   1.408       .  A
C2129      O2135   1.323       .  A
C2130      C2131   1.408       .  A
C2130      H2141   1.082       .  S
C2131      C2140   1.368       .  A
C2131      C2132   1.381       .  A
C2132      C2133   1.398       .  A
C2132      O2138   1.315       .  A
C2133      C2134   1.397       .  A
C2133      H2142   1.083       .  S
C2134      C2137   1.355       .  A
O2135      C2136   1.332       .  A
C2136      C2137   1.387       .  A
C2137      H2143   1.083       .  S
O2138      C2139   1.327       .  A
C2139      C2140   1.394       .  A
C2140      H2144   1.082       .  S
C2145      C2150   1.378   1_545  A
C2145      C2146   1.419       .  A
C2145      O2151   1.335       .  A
C2146      C2147   1.420       .  A
C2146      H2157   1.082       .  S
C2147      C2156   1.380       .  A
C2147      C2148   1.378   1_545  A
C2148      C2149   1.414       .  A
C2148      O2154   1.330       .  A
C2149      C2150   1.414       .  A
C2149      H2158   1.082       .  S
C2150      C2153   1.373       .  A
O2151      C2152   1.341       .  A
C2152      C2153   1.398   1_545  A
C2153      H2159   1.082       .  S
O2154      C2155   1.338   1_565  A
C2155      C2156   1.402       .  A
C2156      H2160   1.082       .  S
C2161      C2166   1.380       .  A
C2161      C2162   1.410       .  A
C2161      O2167   1.325       .  A
C2162      C2163   1.409       .  A
C2162      H2173   1.082       .  S
C2163      C2172   1.369       .  A
C2163      C2164   1.380       .  A
C2164      C2165   1.398       .  A
C2164      O2170   1.315       .  A
C2165      C2166   1.398       .  A
C2165      H2174   1.083       .  S
C2166      C2169   1.355       .  A
O2167      C2168   1.334       .  A
C2168      C2169   1.388       .  A
C2169      H2175   1.083       .  S
O2170      C2171   1.329       .  A
C2171      C2172   1.395       .  A
C2172      H2176   1.082       .  S
C2177      C2182   1.378       .  A
C2177      C2178   1.415       .  A
C2177      O2183   1.332       .  A
C2178      C2179   1.415       .  A
C2178      H2189   1.082       .  S
C2179      C2188   1.375       .  A
C2179      C2180   1.378       .  A
C2180      C2181   1.411       .  A
C2180      O2186   1.327       .  A
C2181      C2182   1.411       .  A
C2181      H2190   1.082       .  S
C2182      C2185   1.369       .  A
O2183      C2184   1.338       .  A
C2184      C2185   1.396       .  A
C2185      H2191   1.083       .  S
O2186      C2187   1.336       .  A
C2187      C2188   1.399       .  A
C2188      H2192   1.082       .  S
C2193      C2198   1.381       .  A
C2193      C2194   1.396       .  A
C2193      O2199   1.311       .  A
C2194      C2195   1.395       .  A
C2194      H2205   1.083       .  S
C2195      C2204   1.353       .  A
C2195      C2196   1.380       .  A
C2196      C2197   1.408       .  A
C2196      O2202   1.322       .  A
C2197      C2198   1.407       .  A
C2197      H2206   1.082       .  S
C2198      C2201   1.369       .  A
O2199      C2200   1.327       .  A
C2200      C2201   1.393       .  A
C2201      H2207   1.082       .  S
O2202      C2203   1.333       .  A
C2203      C2204   1.387       .  A
C2204      H2208   1.083       .  S
C2209      C2214   1.379       .  A
C2209      C2210   1.405       .  A
C2209      O2215   1.321       .  A
C2210      C2211   1.404       .  A
C2210      H2221   1.083       .  S
C2211      C2220   1.364       .  A
C2211      C2212   1.378       .  A
C2212      C2213   1.418       .  A
C2212      O2218   1.332       .  A
C2213      C2214   1.417       .  A
C2213      H2222   1.082       .  S
C2214      C2217   1.380       .  A
O2215      C2216   1.333       .  A
C2216      C2217   1.401       .  A
C2217      H2223   1.082       .  S
O2218      C2219   1.339       .  A
C2219      C2220   1.393       .  A
C2220      H2224   1.083       .  S
C2225      C2230   1.378       .  A
C2225      C2226   1.414       .  A
C2225      O2231   1.331       .  A
C2226      C2227   1.414   1_655  A
C2226      H2237   1.082       .  S
C2227      C2236   1.373       .  A
C2227      C2228   1.377       .  A
C2228      C2229   1.419       .  A
C2228      O2234   1.335       .  A
C2229      C2230   1.419   1_455  A
C2229      H2238   1.082       .  S
C2230      C2233   1.379       .  A
O2231      C2232   1.338       .  A
C2232      C2233   1.402       .  A
C2233      H2239   1.082       .  S
O2234      C2235   1.341       .  A
C2235      C2236   1.400       .  A
C2236      H2240   1.082       .  S
C2241      C2246   1.382       .  A
C2241      C2242   1.391       .  A
C2241      O2247   1.306       .  A
C2242      C2243   1.390       .  A
C2242      H2253   1.082       .  S
C2243      C2252   1.346       .  A
C2243      C2244   1.380       .  A
C2244      C2245   1.404       .  A
C2244      O2250   1.317       .  A
C2245      C2246   1.403       .  A
C2245      H2254   1.082       .  S
C2246      C2249   1.362       .  A
O2247      C2248   1.323       .  A
C2248      C2249   1.393       .  A
C2249      H2255   1.082       .  S
O2250      C2251   1.332       .  A
C2251      C2252   1.384       .  A
C2252      H2256   1.083       .  S
C2257      C2262   1.385       .  A
C2257      C2258   1.396       .  A
C2257      O2263   1.310       .  A
C2258      C2259   1.393       .  A
C2258      H2269   1.082       .  S
C2259      C2268   1.356       .  A
C2259      C2260   1.384       .  A
C2260      C2261   1.399       .  A
C2260      O2266   1.314       .  A
C2261      C2262   1.398       .  A
C2261      H2270   1.082       .  S
C2262      C2265   1.362       .  A
O2263      C2264   1.323       .  A
C2264      C2265   1.386       .  A
C2265      H2271   1.082       .  S
O2266      C2267   1.326       .  A
C2267      C2268   1.384       .  A
C2268      H2272   1.083       .  S
C2273      C2278   1.380       .  A
C2273      C2274   1.407       .  A
C2273      O2279   1.323       .  A
C2274      C2275   1.407       .  A
C2274      H2285   1.083       .  S
C2275      C2284   1.366       .  A
C2275      C2276   1.381       .  A
C2276      C2277   1.396       .  A
C2276      O2282   1.313       .  A
C2277      C2278   1.396       .  A
C2277      H2286   1.083       .  S
C2278      C2281   1.351       .  A
O2279      C2280   1.332       .  A
C2280      C2281   1.389       .  A
C2281      H2287   1.083       .  S
O2282      C2283   1.328       .  A
C2283      C2284   1.393       .  A
C2284      H2288   1.082       .  S
C2289      C2294   1.381       .  A
C2289      C2290   1.401       .  A
C2289      O2295   1.318       .  A
C2290      C2291   1.401       .  A
C2290      H2301   1.083       .  S
C2291      C2300   1.357       .  A
C2291      C2292   1.381       .  A
C2292      C2293   1.406       .  A
C2292      O2298   1.323       .  A
C2293      C2294   1.406       .  A
C2293      H2302   1.083       .  S
C2294      C2297   1.364       .  A
O2295      C2296   1.330       .  A
C2296      C2297   1.393       .  A
C2297      H2303   1.083       .  S
O2298      C2299   1.332       .  A
C2299      C2300   1.391       .  A
C2300      H2304   1.083       .  S
C2305      C2310   1.378   1_455  A
C2305      C2306   1.412       .  A
C2305      O2311   1.328       .  A
C2306      C2307   1.412       .  A
C2306      H2317   1.082       .  S
C2307      C2316   1.372       .  A
C2307      C2308   1.379   1_455  A
C2308      C2309   1.410       .  A
C2308      O2314   1.327       .  A
C2309      C2310   1.410       .  A
C2309      H2318   1.082       .  S
C2310      C2313   1.370       .  A
O2311      C2312   1.337   1_455  A
C2312      C2313   1.396       .  A
C2313      H2319   1.082       .  S
O2314      C2315   1.336       .  A
C2315      C2316   1.398   1_655  A
C2316      H2320   1.082       .  S
C2321      C2326   1.383       .  A
C2321      C2322   1.397       .  A
C2321      O2327   1.314       .  A
C2322      C2323   1.398       .  A
C2322      H2333   1.082       .  S
C2323      C2332   1.355       .  A
C2323      C2324   1.383       .  A
C2324      C2325   1.398       .  A
C2324      O2330   1.315       .  A
C2325      C2326   1.397       .  A
C2325      H2334   1.082       .  S
C2326      C2329   1.355       .  A
O2327      C2328   1.325       .  A
C2328      C2329   1.385       .  A
C2329      H2335   1.083       .  S
O2330      C2331   1.326       .  A
C2331      C2332   1.385       .  A
C2332      H2336   1.083       .  S
C2337      C2342   1.384       .  A
C2337      C2338   1.394       .  A
C2337      O2343   1.313       .  A
C2338      C2339   1.394       .  A
C2338      H2349   1.082       .  S
C2339      C2348   1.349       .  A
C2339      C2340   1.383       .  A
C2340      C2341   1.397       .  A
C2340      O2346   1.316       .  A
C2341      C2342   1.398       .  A
C2341      H2350   1.082       .  S
C2342      C2345   1.353       .  A
O2343      C2344   1.325       .  A
C2344      C2345   1.386       .  A
C2345      H2351   1.083       .  S
O2346      C2347   1.326       .  A
C2347      C2348   1.383       .  A
C2348      H2352   1.083       .  S
C2353      C2358   1.382       .  A
C2353      C2354   1.395       .  A
C2353      O2359   1.311       .  A
C2354      C2355   1.394       .  A
C2354      H2365   1.083       .  S
C2355      C2364   1.351       .  A
C2355      C2356   1.381       .  A
C2356      C2357   1.406       .  A
C2356      O2362   1.322       .  A
C2357      C2358   1.406       .  A
C2357      H2366   1.083       .  S
C2358      C2361   1.365       .  A
O2359      C2360   1.326       .  A
C2360      C2361   1.393       .  A
C2361      H2367   1.083       .  S
O2362      C2363   1.332       .  A
C2363      C2364   1.386       .  A
C2364      H2368   1.083       .  S
C2369      C2374   1.380       .  A
C2369      C2370   1.406       .  A
C2369      O2375   1.319       .  A
C2370      C2371   1.404       .  A
C2370      H2381   1.083       .  S
C2371      C2380   1.367       .  A
C2371      C2372   1.380       .  A
C2372      C2373   1.400       .  A
C2372      O2378   1.313       .  A
C2373      C2374   1.398       .  A
C2373      H2382   1.083       .  S
C2374      C2377   1.358       .  A
O2375      C2376   1.332       .  A
C2376      C2377   1.390       .  A
C2377      H2383   1.083       .  S
O2378      C2379   1.329       .  A
C2379      C2380   1.392       .  A
C2380      H2384   1.083       .  S
C2385      C2390   1.378       .  A
C2385      C2386   1.415       .  A
C2385      O2391   1.331       .  A
C2386      C2387   1.415       .  A
C2386      H2397   1.082       .  S
C2387      C2396   1.375   1_655  A
C2387      C2388   1.377   1_655  A
C2388      C2389   1.419   1_455  A
C2388      O2394   1.334       .  A
C2389      C2390   1.419       .  A
C2389      H2398   1.082       .  S
C2390      C2393   1.380       .  A
O2391      C2392   1.339       .  A
C2392      C2393   1.402       .  A
C2393      H2399   1.082       .  S
O2394      C2395   1.341       .  A
C2395      C2396   1.400       .  A
C2396      H2400   1.082       .  S
C2401      C2406   1.381       .  A
C2401      C2402   1.397       .  A
C2401      O2407   1.314       .  A
C2402      C2403   1.396       .  A
C2402      H2413   1.083       .  S
C2403      C2412   1.353       .  A
C2403      C2404   1.379       .  A
C2404      C2405   1.413       .  A
C2404      O2410   1.328       .  A
C2405      C2406   1.413       .  A
C2405      H2414   1.083       .  S
C2406      C2409   1.373       .  A
O2407      C2408   1.328       .  A
C2408      C2409   1.396       .  A
C2409      H2415   1.082       .  S
O2410      C2411   1.337       .  A
C2411      C2412   1.389       .  A
C2412      H2416   1.083       .  S
C2417      C2422   1.381       .  A
C2417      C2418   1.404       .  A
C2417      O2423   1.322       .  A
C2418      C2419   1.405       .  A
C2418      H2429   1.083       .  S
C2419      C2428   1.362       .  A
C2419      C2420   1.381       .  A
C2420      C2421   1.401       .  A
C2420      O2426   1.319       .  A
C2421      C2422   1.401       .  A
C2421      H2430   1.083       .  S
C2422      C2425   1.358       .  A
O2423      C2424   1.332       .  A
C2424      C2425   1.391       .  A
C2425      H2431   1.083       .  S
O2426      C2427   1.330       .  A
C2427      C2428   1.393       .  A
C2428      H2432   1.083       .  S
C2433      C2438   1.378       .  A
C2433      C2434   1.415       .  A
C2433      O2439   1.331       .  A
C2434      C2435   1.415       .  A
C2434      H2445   1.082       .  S
C2435      C2444   1.376       .  A
C2435      C2436   1.379       .  A
C2436      C2437   1.408       .  A
C2436      O2442   1.324       .  A
C2437      C2438   1.408       .  A
C2437      H2446   1.082       .  S
C2438      C2441   1.367       .  A
O2439      C2440   1.338       .  A
C2440      C2441   1.396       .  A
C2441      H2447   1.083       .  S
O2442      C2443   1.334       .  A
C2443      C2444   1.398       .  A
C2444      H2448   1.082       .  S
C2449      C2454   1.378       .  A
C2449      C2450   1.418       .  A
C2449      O2455   1.334       .  A
C2450      C2451   1.418   1_554  A
C2450      H2461   1.082       .  S
C2451      C2460   1.378       .  A
C2451      C2452   1.378       .  A
C2452      C2453   1.412   1_556  A
C2452      O2458   1.330       .  A
C2453      C2454   1.412       .  A
C2453      H2462   1.082       .  S
C2454      C2457   1.371       .  A
O2455      C2456   1.340       .  A
C2456      C2457   1.397       .  A
C2457      H2463   1.082       .  S
O2458      C2459   1.337       .  A
C2459      C2460   1.401       .  A
C2460      H2464   1.082       .  S
C2465      C2470   1.383       .  A
C2465      C2466   1.397       .  A
C2465      O2471   1.314       .  A
C2466      C2467   1.396       .  A
C2466      H2477   1.082       .  S
C2467      C2476   1.354       .  A
C2467      C2468   1.381       .  A
C2468      C2469   1.399       .  A
C2468      O2474   1.317       .  A
C2469      C2470   1.401       .  A
C2469      H2478   1.082       .  S
C2470      C2473   1.357       .  A
O2471      C2472   1.326       .  A
C2472      C2473   1.388       .  A
C2473      H2479   1.083       .  S
O2474      C2475   1.328       .  A
C2475      C2476   1.387       .  A
C2476      H2480   1.083       .  S
C2481      C2486   1.387       .  A
C2481      C2482   1.394       .  A
C2481      O2487   1.314       .  A
C2482      C2483   1.395       .  A
C2482      H2493   1.083       .  S
C2483      C2492   1.351       .  A
C2483      C2484   1.385       .  A
C2484      C2485   1.394       .  A
C2484      O2490   1.315       .  A
C2485      C2486   1.397       .  A
C2485      H2494   1.083       .  S
C2486      C2489   1.352       .  A
O2487      C2488   1.324       .  A
C2488      C2489   1.385       .  A
C2489      H2495   1.083       .  S
O2490      C2491   1.324       .  A
C2491      C2492   1.385       .  A
C2492      H2496   1.083       .  S
C2497      C2502   1.381       .  A
C2497      C2498   1.398       .  A
C2497      O2503   1.313       .  A
C2498      C2499   1.397       .  A
C2498      H2509   1.083       .  S
C2499      C2508   1.356       .  A
C2499      C2500   1.380       .  A
C2500      C2501   1.410       .  A
C2500      O2506   1.324       .  A
C2501      C2502   1.409       .  A
C2501      H2510   1.083       .  S
C2502      C2505   1.371       .  A
O2503      C2504   1.328       .  A
C2504      C2505   1.395       .  A
C2505      H2511   1.082       .  S
O2506      C2507   1.335       .  A
C2507      C2508   1.389       .  A
C2508      H2512   1.083       .  S
C2513      C2518   1.378       .  A
C2513      C2514   1.421   1_556  A
C2513      O2519   1.336   1_556  A
C2514      C2515   1.421   1_554  A
C2514      H2525   1.082       .  S
C2515      C2524   1.385   1_556  A
C2515      C2516   1.378       .  A
C2516      C2517   1.401       .  A
C2516      O2522   1.316       .  A
C2517      C2518   1.400       .  A
C2517      H2526   1.083       .  S
C2518      C2521   1.357       .  A
O2519      C2520   1.340   1_554  A
C2520      C2521   1.392       .  A
C2521      H2527   1.083       .  S
O2522      C2523   1.332       .  A
C2523      C2524   1.402   1_556  A
C2524      H2528   1.082       .  S
C2529      C2534   1.380       .  A
C2529      C2530   1.402       .  A
C2529      O2535   1.316       .  A
C2530      C2531   1.401       .  A
C2530      H2541   1.082       .  S
C2531      C2540   1.361       .  A
C2531      C2532   1.382       .  A
C2532      C2533   1.394       .  A
C2532      O2538   1.308       .  A
C2533      C2534   1.392       .  A
C2533      H2542   1.082       .  S
C2534      C2537   1.351       .  A
O2535      C2536   1.330       .  A
C2536      C2537   1.385       .  A
C2537      H2543   1.083       .  S
O2538      C2539   1.325       .  A
C2539      C2540   1.392       .  A
C2540      H2544   1.083       .  S
C2545      C2550   1.382       .  A
C2545      C2546   1.397       .  A
C2545      O2551   1.310       .  A
C2546      C2547   1.396       .  A
C2546      H2557   1.082       .  S
C2547      C2556   1.360       .  A
C2547      C2548   1.384       .  A
C2548      C2549   1.401       .  A
C2548      O2554   1.312       .  A
C2549      C2550   1.397       .  A
C2549      H2558   1.082       .  S
C2550      C2553   1.363       .  A
O2551      C2552   1.327       .  A
C2552      C2553   1.387       .  A
C2553      H2559   1.082       .  S
O2554      C2555   1.327       .  A
C2555      C2556   1.384       .  A
C2556      H2560   1.083       .  S
C2561      C2566   1.380       .  A
C2561      C2562   1.411       .  A
C2561      O2567   1.324       .  A
C2562      C2563   1.410       .  A
C2562      H2573   1.083       .  S
C2563      C2572   1.372       .  A
C2563      C2564   1.381       .  A
C2564      C2565   1.395       .  A
C2564      O2570   1.311       .  A
C2565      C2566   1.394       .  A
C2565      H2574   1.083       .  S
C2566      C2569   1.353       .  A
O2567      C2568   1.335       .  A
C2568      C2569   1.387       .  A
C2569      H2575   1.083       .  S
O2570      C2571   1.327       .  A
C2571      C2572   1.396       .  A
C2572      H2576   1.082       .  S
C2577      C2582   1.378       .  A
C2577      C2578   1.413       .  A
C2577      O2583   1.328       .  A
C2578      C2579   1.413       .  A
C2578      H2589   1.082       .  S
C2579      C2588   1.373       .  A
C2579      C2580   1.378       .  A
C2580      C2581   1.414   1_556  A
C2580      O2586   1.330   1_556  A
C2581      C2582   1.414   1_554  A
C2581      H2590   1.082       .  S
C2582      C2585   1.376       .  A
O2583      C2584   1.338       .  A
C2584      C2585   1.398       .  A
C2585      H2591   1.082   1_556  S
O2586      C2587   1.338   1_554  A
C2587      C2588   1.398       .  A
C2588      H2592   1.082       .  S
C2593      C2598   1.381       .  A
C2593      C2594   1.407       .  A
C2593      O2599   1.323       .  A
C2594      C2595   1.407       .  A
C2594      H2605   1.083       .  S
C2595      C2604   1.367       .  A
C2595      C2596   1.380       .  A
C2596      C2597   1.403       .  A
C2596      O2602   1.318       .  A
C2597      C2598   1.402       .  A
C2597      H2606   1.083       .  S
C2598      C2601   1.359       .  A
O2599      C2600   1.332       .  A
C2600      C2601   1.390       .  A
C2601      H2607   1.083       .  S
O2602      C2603   1.331       .  A
C2603      C2604   1.393       .  A
C2604      H2608   1.082       .  S
C2609      C2614   1.381       .  A
C2609      C2610   1.407       .  A
C2609      O2615   1.323       .  A
C2610      C2611   1.407       .  A
C2610      H2621   1.083       .  S
C2611      C2620   1.365       .  A
C2611      C2612   1.381       .  A
C2612      C2613   1.395       .  A
C2612      O2618   1.313       .  A
C2613      C2614   1.395       .  A
C2613      H2622   1.083       .  S
C2614      C2617   1.351       .  A
O2615      C2616   1.332       .  A
C2616      C2617   1.387       .  A
C2617      H2623   1.083       .  S
O2618      C2619   1.326       .  A
C2619      C2620   1.393       .  A
C2620      H2624   1.083       .  S
C2625      C2630   1.380       .  A
C2625      C2626   1.409       .  A
C2625      O2631   1.324       .  A
C2626      C2627   1.408       .  A
C2626      H2637   1.083       .  S
C2627      C2636   1.368       .  A
C2627      C2628   1.381       .  A
C2628      C2629   1.395       .  A
C2628      O2634   1.312       .  A
C2629      C2630   1.394       .  A
C2629      H2638   1.083       .  S
C2630      C2633   1.351       .  A
O2631      C2632   1.334       .  A
C2632      C2633   1.388       .  A
C2633      H2639   1.083       .  S
O2634      C2635   1.327       .  A
C2635      C2636   1.394       .  A
C2636      H2640   1.082       .  S
C2641      C2646   1.381       .  A
C2641      C2642   1.402       .  A
C2641      O2647   1.318       .  A
C2642      C2643   1.401       .  A
C2642      H2653   1.083       .  S
C2643      C2652   1.360       .  A
C2643      C2644   1.381       .  A
C2644      C2645   1.401       .  A
C2644      O2650   1.316       .  A
C2645      C2646   1.400       .  A
C2645      H2654   1.083       .  S
C2646      C2649   1.358       .  A
O2647      C2648   1.330       .  A
C2648      C2649   1.390       .  A
C2649      H2655   1.083       .  S
O2650      C2651   1.330       .  A
C2651      C2652   1.390       .  A
C2652      H2656   1.083       .  S
C2657      C2662   1.379       .  A
C2657      C2658   1.411       .  A
C2657      O2663   1.328       .  A
C2658      C2659   1.411       .  A
C2658      H2669   1.082       .  S
C2659      C2668   1.370       .  A
C2659      C2660   1.379       .  A
C2660      C2661   1.407       .  A
C2660      O2666   1.325       .  A
C2661      C2662   1.408       .  A
C2661      H2670   1.082       .  S
C2662      C2665   1.366       .  A
O2663      C2664   1.336       .  A
C2664      C2665   1.395       .  A
C2665      H2671   1.083       .  S
O2666      C2667   1.334       .  A
C2667      C2668   1.397       .  A
C2668      H2672   1.082       .  S
C2673      C2678   1.378       .  A
C2673      C2674   1.416   1_556  A
C2673      O2679   1.334       .  A
C2674      C2675   1.417       .  A
C2674      H2685   1.082   1_554  S
C2675      C2684   1.376       .  A
C2675      C2676   1.378       .  A
C2676      C2677   1.413       .  A
C2676      O2682   1.330       .  A
C2677      C2678   1.413   1_554  A
C2677      H2686   1.082       .  S
C2678      C2681   1.371       .  A
O2679      C2680   1.340       .  A
C2680      C2681   1.399       .  A
C2681      H2687   1.082       .  S
O2682      C2683   1.337       .  A
C2683      C2684   1.400       .  A
C2684      H2688   1.082       .  S
C2689      C2694   1.382       .  A
C2689      C2690   1.397       .  A
C2689      O2695   1.316       .  A
C2690      C2691   1.398       .  A
C2690      H2701   1.082       .  S
C2691      C2700   1.355       .  A
C2691      C2692   1.384       .  A
C2692      C2693   1.398       .  A
C2692      O2698   1.315       .  A
C2693      C2694   1.398       .  A
C2693      H2702   1.082       .  S
C2694      C2697   1.355       .  A
O2695      C2696   1.327       .  A
C2696      C2697   1.387       .  A
C2697      H2703   1.083       .  S
O2698      C2699   1.327       .  A
C2699      C2700   1.387       .  A
C2700      H2704   1.083       .  S
C2705      C2710   1.381       .  A
C2705      C2706   1.398       .  A
C2705      O2711   1.314       .  A
C2706      C2707   1.398       .  A
C2706      H2717   1.082       .  S
C2707      C2716   1.354       .  A
C2707      C2708   1.382       .  A
C2708      C2709   1.395       .  A
C2708      O2714   1.310       .  A
C2709      C2710   1.394       .  A
C2709      H2718   1.082       .  S
C2710      C2713   1.350       .  A
O2711      C2712   1.328       .  A
C2712      C2713   1.387       .  A
C2713      H2719   1.083       .  S
O2714      C2715   1.325       .  A
C2715      C2716   1.389       .  A
C2716      H2720   1.083       .  S
C2721      C2726   1.380       .  A
C2721      C2722   1.412       .  A
C2721      O2727   1.326       .  A
C2722      C2723   1.411       .  A
C2722      H2733   1.082       .  S
C2723      C2732   1.373       .  A
C2723      C2724   1.381       .  A
C2724      C2725   1.394       .  A
C2724      O2730   1.310       .  A
C2725      C2726   1.393       .  A
C2725      H2734   1.083       .  S
C2726      C2729   1.350       .  A
O2727      C2728   1.335       .  A
C2728      C2729   1.387       .  A
C2729      H2735   1.083       .  S
O2730      C2731   1.326       .  A
C2731      C2732   1.396       .  A
C2732      H2736   1.082       .  S
C2737      C2742   1.380   1_556  A
C2737      C2738   1.414       .  A
C2737      O2743   1.330       .  A
C2738      C2739   1.413       .  A
C2738      H2749   1.087       .  S
C2739      C2748   1.375       .  A
C2739      C2740   1.380   1_556  A
C2740      C2741   1.405       .  A
C2740      O2746   1.321       .  A
C2741      C2742   1.404       .  A
C2741      H2750   1.087       .  S
C2742      C2745   1.363       .  A
O2743      C2744   1.337   1_556  A
C2744      C2745   1.393       .  A
C2745      H2751   1.085       .  S
O2746      C2747   1.333   1_554  A
C2747      C2748   1.398       .  A
C2748      H2752   1.084       .  S
C2753      C2758   1.381       .  A
C2753      C2754   1.397       .  A
C2753      O2759   1.309       .  A
C2754      C2755   1.395       .  A
C2754      H2765   1.082       .  S
C2755      C2764   1.358       .  A
C2755      C2756   1.383       .  A
C2756      C2757   1.400       .  A
C2756      O2762   1.311       .  A
C2757      C2758   1.396       .  A
C2757      H2766   1.082       .  S
C2758      C2761   1.362       .  A
O2759      C2760   1.326       .  A
C2760      C2761   1.386       .  A
C2761      H2767   1.082       .  S
O2762      C2763   1.326       .  A
C2763      C2764   1.385       .  A
C2764      H2768   1.083       .  S
C2769      C2774   1.384       .  A
C2769      C2770   1.399       .  A
C2769      O2775   1.316       .  A
C2770      C2771   1.399       .  A
C2770      H2781   1.082       .  S
C2771      C2780   1.358       .  A
C2771      C2772   1.384       .  A
C2772      C2773   1.398       .  A
C2772      O2778   1.316       .  A
C2773      C2774   1.398       .  A
C2773      H2782   1.082       .  S
C2774      C2777   1.357       .  A
O2775      C2776   1.326       .  A
C2776      C2777   1.384       .  A
C2777      H2783   1.083       .  S
O2778      C2779   1.326       .  A
C2779      C2780   1.385       .  A
C2780      H2784   1.083       .  S
C2785      C2790   1.380       .  A
C2785      C2786   1.408       .  A
C2785      O2791   1.322       .  A
C2786      C2787   1.406       .  A
C2786      H2797   1.083       .  S
C2787      C2796   1.368       .  A
C2787      C2788   1.381       .  A
C2788      C2789   1.398       .  A
C2788      O2794   1.312       .  A
C2789      C2790   1.396       .  A
C2789      H2798   1.083       .  S
C2790      C2793   1.355       .  A
O2791      C2792   1.333       .  A
C2792      C2793   1.389       .  A
C2793      H2799   1.083       .  S
O2794      C2795   1.328       .  A
C2795      C2796   1.393       .  A
C2796      H2800   1.082       .  S
C2801      C2806   1.379   1_554  A
C2801      C2802   1.410       .  A
C2801      O2807   1.325       .  A
C2802      C2803   1.409       .  A
C2802      H2813   1.082       .  S
C2803      C2812   1.370       .  A
C2803      C2804   1.379   1_554  A
C2804      C2805   1.411       .  A
C2804      O2810   1.326       .  A
C2805      C2806   1.411       .  A
C2805      H2814   1.082       .  S
C2806      C2809   1.371       .  A
O2807      C2808   1.335   1_554  A
C2808      C2809   1.397       .  A
C2809      H2815   1.082       .  S
O2810      C2811   1.336   1_556  A
C2811      C2812   1.396       .  A
C2812      H2816   1.082       .  S
C2817      C2822   1.377       .  A
C2817      C2818   1.416       .  A
C2817      O2823   1.332       .  A
C2818      C2819   1.416       .  A
C2818      H2829   1.082   1_556  S
C2819      C2828   1.376       .  A
C2819      C2820   1.377       .  A
C2820      C2821   1.419       .  A
C2820      O2826   1.334       .  A
C2821      C2822   1.419       .  A
C2821      H2830   1.082       .  S
C2822      C2825   1.379       .  A
O2823      C2824   1.340       .  A
C2824      C2825   1.402       .  A
C2825      H2831   1.082       .  S
O2826      C2827   1.341       .  A
C2827      C2828   1.400       .  A
C2828      H2832   1.082   1_556  S
C2833      C2838   1.381       .  A
C2833      C2834   1.395       .  A
C2833      O2839   1.312       .  A
C2834      C2835   1.395       .  A
C2834      H2845   1.083       .  S
C2835      C2844   1.351       .  A
C2835      C2836   1.380       .  A
C2836      C2837   1.411       .  A
C2836      O2842   1.328       .  A
C2837      C2838   1.411       .  A
C2837      H2846   1.082       .  S
C2838      C2841   1.371       .  A
O2839      C2840   1.327       .  A
C2840      C2841   1.395       .  A
C2841      H2847   1.082       .  S
O2842      C2843   1.335       .  A
C2843      C2844   1.388       .  A
C2844      H2848   1.083       .  S
C2849      C2854   1.381       .  A
C2849      C2850   1.397       .  A
C2849      O2855   1.314       .  A
C2850      C2851   1.396       .  A
C2850      H2861   1.083       .  S
C2851      C2860   1.353       .  A
C2851      C2852   1.380       .  A
C2852      C2853   1.408       .  A
C2852      O2858   1.324       .  A
C2853      C2854   1.407       .  A
C2853      H2862   1.082       .  S
C2854      C2857   1.366       .  A
O2855      C2856   1.327       .  A
C2856      C2857   1.394       .  A
C2857      H2863   1.083       .  S
O2858      C2859   1.333       .  A
C2859      C2860   1.388       .  A
C2860      H2864   1.083       .  S
C2865      C2870   1.378       .  A
C2865      C2866   1.408       .  A
C2865      O2871   1.323       .  A
C2866      C2867   1.407       .  A
C2866      H2877   1.082       .  S
C2867      C2876   1.368       .  A
C2867      C2868   1.378       .  A
C2868      C2869   1.418       .  A
C2868      O2874   1.332       .  A
C2869      C2870   1.417       .  A
C2869      H2878   1.082       .  S
C2870      C2873   1.380       .  A
O2871      C2872   1.335       .  A
C2872      C2873   1.400       .  A
C2873      H2879   1.082       .  S
O2874      C2875   1.340       .  A
C2875      C2876   1.395       .  A
C2876      H2880   1.083       .  S
C2881      C2886   1.381       .  A
C2881      C2882   1.391       .  A
C2881      O2887   1.308       .  A
C2882      C2883   1.390       .  A
C2882      H2893   1.083       .  S
C2883      C2892   1.346       .  A
C2883      C2884   1.381       .  A
C2884      C2885   1.408       .  A
C2884      O2890   1.323       .  A
C2885      C2886   1.407       .  A
C2885      H2894   1.082       .  S
C2886      C2889   1.368       .  A
O2887      C2888   1.324       .  A
C2888      C2889   1.394       .  A
C2889      H2895   1.082       .  S
O2890      C2891   1.333       .  A
C2891      C2892   1.386       .  A
C2892      H2896   1.083       .  S
C2897      C2902   1.380       .  A
C2897      C2898   1.410       .  A
C2897      O2903   1.326       .  A
C2898      C2899   1.410       .  A
C2898      H2909   1.082       .  S
C2899      C2908   1.370       .  A
C2899      C2900   1.381       .  A
C2900      C2901   1.396       .  A
C2900      O2906   1.313       .  A
C2901      C2902   1.396       .  A
C2901      H2910   1.083       .  S
C2902      C2905   1.352       .  A
O2903      C2904   1.334       .  A
C2904      C2905   1.388       .  A
C2905      H2911   1.083       .  S
O2906      C2907   1.327       .  A
C2907      C2908   1.394       .  A
C2908      H2912   1.082       .  S
C2913      C2918   1.378       .  A
C2913      C2914   1.410       .  A
C2913      O2919   1.326       .  A
C2914      C2915   1.410       .  A
C2914      H2925   1.082       .  S
C2915      C2924   1.369       .  A
C2915      C2916   1.378       .  A
C2916      C2917   1.416       .  A
C2916      O2922   1.332       .  A
C2917      C2918   1.416       .  A
C2917      H2926   1.082       .  S
C2918      C2921   1.377       .  A
O2919      C2920   1.336       .  A
C2920      C2921   1.398       .  A
C2921      H2927   1.082       .  S
O2922      C2923   1.339       .  A
C2923      C2924   1.397       .  A
C2924      H2928   1.082       .  S
C2929      C2934   1.378       .  A
C2929      C2930   1.415   1_545  A
C2929      O2935   1.330       .  A
C2930      C2931   1.414       .  A
C2930      H2941   1.082   1_565  S
C2931      C2940   1.375       .  A
C2931      C2932   1.378       .  A
C2932      C2933   1.417       .  A
C2932      O2938   1.332       .  A
C2933      C2934   1.416   1_565  A
C2933      H2942   1.082       .  S
C2934      C2937   1.378       .  A
O2935      C2936   1.338       .  A
C2936      C2937   1.401       .  A
C2937      H2943   1.082       .  S
O2938      C2939   1.340       .  A
C2939      C2940   1.399       .  A
C2940      H2944   1.082       .  S
C2945      C2950   1.383       .  A
C2945      C2946   1.398       .  A
C2945      O2951   1.319       .  A
C2946      C2947   1.400       .  A
C2946      H2957   1.082       .  S
C2947      C2956   1.354       .  A
C2947      C2948   1.385       .  A
C2948      C2949   1.392       .  A
C2948      O2954   1.313       .  A
C2949      C2950   1.394       .  A
C2949      H2958   1.082       .  S
C2950      C2953   1.346       .  A
O2951      C2952   1.327       .  A
C2952      C2953   1.387       .  A
C2953      H2959   1.083       .  S
O2954      C2955   1.324       .  A
C2955      C2956   1.388       .  A
C2956      H2960   1.083       .  S
C2961      C2966   1.383       .  A
C2961      C2962   1.398       .  A
C2961      O2967   1.318       .  A
C2962      C2963   1.400       .  A
C2962      H2973   1.082       .  S
C2963      C2972   1.355       .  A
C2963      C2964   1.385       .  A
C2964      C2965   1.393       .  A
C2964      O2970   1.312       .  A
C2965      C2966   1.393       .  A
C2965      H2974   1.082       .  S
C2966      C2969   1.348       .  A
O2967      C2968   1.327       .  A
C2968      C2969   1.386       .  A
C2969      H2975   1.083       .  S
O2970      C2971   1.323       .  A
C2971      C2972   1.388       .  A
C2972      H2976   1.083       .  S
C2977      C2982   1.381       .  A
C2977      C2978   1.395       .  A
C2977      O2983   1.312       .  A
C2978      C2979   1.395       .  A
C2978      H2989   1.083       .  S
C2979      C2988   1.351       .  A
C2979      C2980   1.381       .  A
C2980      C2981   1.408       .  A
C2980      O2986   1.324       .  A
C2981      C2982   1.408       .  A
C2981      H2990   1.082       .  S
C2982      C2985   1.368       .  A
O2983      C2984   1.327       .  A
C2984      C2985   1.393       .  A
C2985      H2991   1.082       .  S
O2986      C2987   1.333       .  A
C2987      C2988   1.387       .  A
C2988      H2992   1.083       .  S
C2993      C2998   1.381       .  A
C2993      C2994   1.398       .  A
C2993      O2999   1.314       .  A
C2994      C2995   1.398       .  A
C2994      H3005   1.083       .  S
C2995      C3004   1.356       .  A
C2995      C2996   1.381       .  A
C2996      C2997   1.405       .  A
C2996      O3002   1.320       .  A
C2997      C2998   1.404       .  A
C2997      H3006   1.082       .  S
C2998      C3001   1.364       .  A
O2999      C3000   1.327       .  A
C3000      C3001   1.392       .  A
C3001      H3007   1.083       .  S
O3002      C3003   1.331       .  A
C3003      C3004   1.388       .  A
C3004      H3008   1.083       .  S
C3009      C3014   1.378   1_545  A
C3009      C3010   1.419       .  A
C3009      O3015   1.336       .  A
C3010      C3011   1.420       .  A
C3010      H3021   1.082       .  S
C3011      C3020   1.378       .  A
C3011      C3012   1.378   1_545  A
C3012      C3013   1.410       .  A
C3012      O3018   1.329       .  A
C3013      C3014   1.411       .  A
C3013      H3022   1.082       .  S
C3014      C3017   1.368       .  A
O3015      C3016   1.341   1_545  A
C3016      C3017   1.396       .  A
C3017      H3023   1.083       .  S
O3018      C3019   1.336       .  A
C3019      C3020   1.403   1_565  A
C3020      H3024   1.082       .  S
C3025      C3030   1.382       .  A
C3025      C3026   1.402       .  A
C3025      O3031   1.312       .  A
C3026      C3027   1.399       .  A
C3026      H3037   1.082       .  S
C3027      C3036   1.365       .  A
C3027      C3028   1.382       .  A
C3028      C3029   1.398       .  A
C3028      O3034   1.309       .  A
C3029      C3030   1.395       .  A
C3029      H3038   1.082       .  S
C3030      C3033   1.360       .  A
O3031      C3032   1.329       .  A
C3032      C3033   1.386       .  A
C3033      H3039   1.082       .  S
O3034      C3035   1.327       .  A
C3035      C3036   1.388       .  A
C3036      H3040   1.082       .  S
C3041      C3046   1.381       .  A
C3041      C3042   1.397       .  A
C3041      O3047   1.308       .  A
C3042      C3043   1.394       .  A
C3042      H3053   1.082       .  S
C3043      C3052   1.359       .  A
C3043      C3044   1.382       .  A
C3044      C3045   1.403       .  A
C3044      O3050   1.313       .  A
C3045      C3046   1.400       .  A
C3045      H3054   1.082       .  S
C3046      C3049   1.367       .  A
O3047      C3048   1.327       .  A
C3048      C3049   1.389       .  A
C3049      H3055   1.082       .  S
O3050      C3051   1.329       .  A
C3051      C3052   1.386       .  A
C3052      H3056   1.083       .  S
C3057      C3062   1.381       .  A
C3057      C3058   1.399       .  A
C3057      O3063   1.318       .  A
C3058      C3059   1.399       .  A
C3058      H3069   1.083       .  S
C3059      C3068   1.354       .  A
C3059      C3060   1.381       .  A
C3060      C3061   1.407       .  A
C3060      O3066   1.325       .  A
C3061      C3062   1.407       .  A
C3061      H3070   1.083       .  S
C3062      C3065   1.364       .  A
O3063      C3064   1.328       .  A
C3064      C3065   1.394       .  A
C3065      H3071   1.083       .  S
O3066      C3067   1.332       .  A
C3067      C3068   1.390       .  A
C3068      H3072   1.083       .  S
C3073      C3078   1.380       .  A
C3073      C3074   1.398       .  A
C3073      O3079   1.313       .  A
C3074      C3075   1.397       .  A
C3074      H3085   1.083       .  S
C3075      C3084   1.355       .  A
C3075      C3076   1.380       .  A
C3076      C3077   1.412       .  A
C3076      O3082   1.327       .  A
C3077      C3078   1.411       .  A
C3077      H3086   1.082       .  S
C3078      C3081   1.373       .  A
O3079      C3080   1.328       .  A
C3080      C3081   1.395       .  A
C3081      H3087   1.082       .  S
O3082      C3083   1.335       .  A
C3083      C3084   1.388       .  A
C3084      H3088   1.083       .  S
C3089      C3094   1.378       .  A
C3089      C3090   1.403       .  A
C3089      O3095   1.321       .  A
C3090      C3091   1.403       .  A
C3090      H3101   1.083       .  S
C3091      C3100   1.359       .  A
C3091      C3092   1.377       .  A
C3092      C3093   1.423   1_545  A
C3092      O3098   1.339   1_545  A
C3093      C3094   1.423   1_565  A
C3093      H3102   1.082       .  S
C3094      C3097   1.385   1_545  A
O3095      C3096   1.333       .  A
C3096      C3097   1.404   1_545  A
C3097      H3103   1.082       .  S
O3098      C3099   1.343   1_565  A
C3099      C3100   1.394       .  A
C3100      H3104   1.083       .  S
C3105      C3110   1.378   1_565  A
C3105      C3106   1.415       .  A
C3105      O3111   1.331       .  A
C3106      C3107   1.415       .  A
C3106      H3117   1.082       .  S
C3107      C3116   1.375       .  A
C3107      C3108   1.378   1_565  A
C3108      C3109   1.413       .  A
C3108      O3114   1.329       .  A
C3109      C3110   1.412       .  A
C3109      H3118   1.082       .  S
C3110      C3113   1.371       .  A
O3111      C3112   1.338       .  A
C3112      C3113   1.398   1_565  A
C3113      H3119   1.082       .  S
O3114      C3115   1.337   1_545  A
C3115      C3116   1.400       .  A
C3116      H3120   1.082       .  S
C3121      C3126   1.381       .  A
C3121      C3122   1.399       .  A
C3121      O3127   1.315       .  A
C3122      C3123   1.398       .  A
C3122      H3133   1.083       .  S
C3123      C3132   1.356       .  A
C3123      C3124   1.381       .  A
C3124      C3125   1.403       .  A
C3124      O3130   1.319       .  A
C3125      C3126   1.402       .  A
C3125      H3134   1.083       .  S
C3126      C3129   1.362       .  A
O3127      C3128   1.329       .  A
C3128      C3129   1.390       .  A
C3129      H3135   1.083       .  S
O3130      C3131   1.330       .  A
C3131      C3132   1.389       .  A
C3132      H3136   1.083       .  S
C3137      C3142   1.381       .  A
C3137      C3138   1.396       .  A
C3137      O3143   1.310       .  A
C3138      C3139   1.394       .  A
C3138      H3149   1.083       .  S
C3139      C3148   1.353       .  A
C3139      C3140   1.381       .  A
C3140      C3141   1.405       .  A
C3140      O3146   1.320       .  A
C3141      C3142   1.404       .  A
C3141      H3150   1.083       .  S
C3142      C3145   1.366       .  A
O3143      C3144   1.327       .  A
C3144      C3145   1.392       .  A
C3145      H3151   1.082       .  S
O3146      C3147   1.331       .  A
C3147      C3148   1.388       .  A
C3148      H3152   1.083       .  S
C3153      C3158   1.378       .  A
C3153      C3154   1.410       .  A
C3153      O3159   1.328       .  A
C3154      C3155   1.411       .  A
C3154      H3165   1.083       .  S
C3155      C3164   1.368       .  A
C3155      C3156   1.378       .  A
C3156      C3157   1.416       .  A
C3156      O3162   1.334       .  A
C3157      C3158   1.417       .  A
C3157      H3166   1.082       .  S
C3158      C3161   1.375       .  A
O3159      C3160   1.336       .  A
C3160      C3161   1.399       .  A
C3161      H3167   1.082       .  S
O3162      C3163   1.339       .  A
C3163      C3164   1.397       .  A
C3164      H3168   1.083       .  S
C3169      C3174   1.381       .  A
C3169      C3170   1.397       .  A
C3169      O3175   1.313       .  A
C3170      C3171   1.397       .  A
C3170      H3181   1.083       .  S
C3171      C3180   1.353       .  A
C3171      C3172   1.381       .  A
C3172      C3173   1.407       .  A
C3172      O3178   1.324       .  A
C3173      C3174   1.407       .  A
C3173      H3182   1.083       .  S
C3174      C3177   1.366       .  A
O3175      C3176   1.328       .  A
C3176      C3177   1.393       .  A
C3177      H3183   1.082       .  S
O3178      C3179   1.332       .  A
C3179      C3180   1.389       .  A
C3180      H3184   1.083       .  S
C3185      C3190   1.381       .  A
C3185      C3186   1.408       .  A
C3185      O3191   1.323       .  A
C3186      C3187   1.408       .  A
C3186      H3197   1.083       .  S
C3187      C3196   1.368       .  A
C3187      C3188   1.381       .  A
C3188      C3189   1.396       .  A
C3188      O3194   1.312       .  A
C3189      C3190   1.395       .  A
C3189      H3198   1.083       .  S
C3190      C3193   1.354       .  A
O3191      C3192   1.333       .  A
C3192      C3193   1.385       .  A
C3193      H3199   1.083       .  S
O3194      C3195   1.327       .  A
C3195      C3196   1.394       .  A
C3196      H3200   1.082       .  S
C3201      C3206   1.378       .  A
C3201      C3202   1.401       .  A
C3201      O3207   1.318       .  A
C3202      C3203   1.401       .  A
C3202      H3213   1.083       .  S
C3203      C3212   1.358       .  A
C3203      C3204   1.377       .  A
C3204      C3205   1.424       .  A
C3204      O3210   1.339       .  A
C3205      C3206   1.425       .  A
C3205      H3214   1.082       .  S
C3206      C3209   1.387       .  A
O3207      C3208   1.332       .  A
C3208      C3209   1.404       .  A
C3209      H3215   1.082       .  S
O3210      C3211   1.343       .  A
C3211      C3212   1.392       .  A
C3212      H3216   1.083       .  S
C3217      C3222   1.378       .  A
C3217      C3218   1.417       .  A
C3217      O3223   1.333       .  A
C3218      C3219   1.417   1_655  A
C3218      H3229   1.082       .  S
C3219      C3228   1.377       .  A
C3219      C3220   1.378       .  A
C3220      C3221   1.413   1_455  A
C3220      O3226   1.330       .  A
C3221      C3222   1.413       .  A
C3221      H3230   1.082       .  S
C3222      C3225   1.373       .  A
O3223      C3224   1.339       .  A
C3224      C3225   1.398       .  A
C3225      H3231   1.082       .  S
O3226      C3227   1.337       .  A
C3227      C3228   1.400       .  A
C3228      H3232   1.082       .  S
C3233      C3238   1.383       .  A
C3233      C3234   1.402       .  A
C3233      O3239   1.313       .  A
C3234      C3235   1.399       .  A
C3234      H3245   1.082       .  S
C3235      C3244   1.365       .  A
C3235      C3236   1.382       .  A
C3236      C3237   1.397       .  A
C3236      O3242   1.310       .  A
C3237      C3238   1.395       .  A
C3237      H3246   1.082       .  S
C3238      C3241   1.360       .  A
O3239      C3240   1.327       .  A
C3240      C3241   1.384       .  A
C3241      H3247   1.083       .  S
O3242      C3243   1.327       .  A
C3243      C3244   1.389       .  A
C3244      H3248   1.082       .  S
C3249      C3254   1.383       .  A
C3249      C3250   1.391       .  A
C3249      O3255   1.303       .  A
C3250      C3251   1.389       .  A
C3250      H3261   1.082       .  S
C3251      C3260   1.352       .  A
C3251      C3252   1.384       .  A
C3252      C3253   1.402       .  A
C3252      O3258   1.312       .  A
C3253      C3254   1.398       .  A
C3253      H3262   1.082       .  S
C3254      C3257   1.364       .  A
O3255      C3256   1.321       .  A
C3256      C3257   1.386       .  A
C3257      H3263   1.082       .  S
O3258      C3259   1.329       .  A
C3259      C3260   1.383       .  A
C3260      H3264   1.083       .  S
C3265      C3270   1.380       .  A
C3265      C3266   1.410       .  A
C3265      O3271   1.325       .  A
C3266      C3267   1.410       .  A
C3266      H3277   1.083       .  S
C3267      C3276   1.371       .  A
C3267      C3268   1.381       .  A
C3268      C3269   1.393       .  A
C3268      O3274   1.310       .  A
C3269      C3270   1.393       .  A
C3269      H3278   1.083       .  S
C3270      C3273   1.350       .  A
O3271      C3272   1.334       .  A
C3272      C3273   1.386       .  A
C3273      H3279   1.083       .  S
O3274      C3275   1.326       .  A
C3275      C3276   1.396       .  A
C3276      H3280   1.082       .  S
C3281      C3286   1.381       .  A
C3281      C3282   1.405       .  A
C3281      O3287   1.321       .  A
C3282      C3283   1.404       .  A
C3282      H3293   1.083       .  S
C3283      C3292   1.364       .  A
C3283      C3284   1.381       .  A
C3284      C3285   1.399       .  A
C3284      O3290   1.315       .  A
C3285      C3286   1.399       .  A
C3285      H3294   1.083       .  S
C3286      C3289   1.356       .  A
O3287      C3288   1.331       .  A
C3288      C3289   1.390       .  A
C3289      H3295   1.083       .  S
O3290      C3291   1.329       .  A
C3291      C3292   1.392       .  A
C3292      H3296   1.082       .  S
C3297      C3302   1.378   1_455  A
C3297      C3298   1.416       .  A
C3297      O3303   1.333       .  A
C3298      C3299   1.416       .  A
C3298      H3309   1.082       .  S
C3299      C3308   1.378       .  A
C3299      C3300   1.378   1_455  A
C3300      C3301   1.409       .  A
C3300      O3306   1.325       .  A
C3301      C3302   1.409       .  A
C3301      H3310   1.083       .  S
C3302      C3305   1.367       .  A
O3303      C3304   1.338   1_455  A
C3304      C3305   1.396       .  A
C3305      H3311   1.083       .  S
O3306      C3307   1.336       .  A
C3307      C3308   1.399   1_655  A
C3308      H3312   1.082       .  S
C3313      C3318   1.383       .  A
C3313      C3314   1.398       .  A
C3313      O3319   1.311       .  A
C3314      C3315   1.396       .  A
C3314      H3325   1.082       .  S
C3315      C3324   1.361       .  A
C3315      C3316   1.385       .  A
C3316      C3317   1.397       .  A
C3316      O3322   1.308       .  A
C3317      C3318   1.393       .  A
C3317      H3326   1.082       .  S
C3318      C3321   1.359       .  A
O3319      C3320   1.326       .  A
C3320      C3321   1.385       .  A
C3321      H3327   1.082       .  S
O3322      C3323   1.325       .  A
C3323      C3324   1.385       .  A
C3324      H3328   1.082       .  S
C3329      C3334   1.383       .  A
C3329      C3330   1.395       .  A
C3329      O3335   1.309       .  A
C3330      C3331   1.393       .  A
C3330      H3341   1.082       .  S
C3331      C3340   1.355       .  A
C3331      C3332   1.384       .  A
C3332      C3333   1.399       .  A
C3332      O3338   1.312       .  A
C3333      C3334   1.397       .  A
C3333      H3342   1.082       .  S
C3334      C3337   1.359       .  A
O3335      C3336   1.325       .  A
C3336      C3337   1.387       .  A
C3337      H3343   1.082       .  S
O3338      C3339   1.325       .  A
C3339      C3340   1.383       .  A
C3340      H3344   1.083       .  S
C3345      C3350   1.381       .  A
C3345      C3346   1.397       .  A
C3345      O3351   1.314       .  A
C3346      C3347   1.397       .  A
C3346      H3357   1.083       .  S
C3347      C3356   1.353       .  A
C3347      C3348   1.381       .  A
C3348      C3349   1.403       .  A
C3348      O3354   1.320       .  A
C3349      C3350   1.403       .  A
C3349      H3358   1.083       .  S
C3350      C3353   1.362       .  A
O3351      C3352   1.328       .  A
C3352      C3353   1.391       .  A
C3353      H3359   1.083       .  S
O3354      C3355   1.330       .  A
C3355      C3356   1.389       .  A
C3356      H3360   1.083       .  S
C3361      C3366   1.381       .  A
C3361      C3362   1.410       .  A
C3361      O3367   1.324       .  A
C3362      C3363   1.409       .  A
C3362      H3373   1.083       .  S
C3363      C3372   1.369       .  A
C3363      C3364   1.381       .  A
C3364      C3365   1.396       .  A
C3364      O3370   1.313       .  A
C3365      C3366   1.395       .  A
C3365      H3374   1.083       .  S
C3366      C3369   1.353       .  A
O3367      C3368   1.334       .  A
C3368      C3369   1.386       .  A
C3369      H3375   1.083       .  S
O3370      C3371   1.327       .  A
C3371      C3372   1.395       .  A
C3372      H3376   1.082       .  S
C3377      C3382   1.378   1_455  A
C3377      C3378   1.418       .  A
C3377      O3383   1.334       .  A
C3378      C3379   1.418       .  A
C3378      H3389   1.082       .  S
C3379      C3388   1.378       .  A
C3379      C3380   1.379   1_455  A
C3380      C3381   1.404       .  A
C3380      O3386   1.322       .  A
C3381      C3382   1.404       .  A
C3381      H3390   1.082       .  S
C3382      C3385   1.361       .  A
O3383      C3384   1.340       .  A
C3384      C3385   1.393   1_455  A
C3385      H3391   1.083       .  S
O3386      C3387   1.332   1_655  A
C3387      C3388   1.400       .  A
C3388      H3392   1.082       .  S
C3393      C3398   1.378   1_655  A
C3393      C3394   1.419       .  A
C3393      O3399   1.335       .  A
C3394      C3395   1.419       .  A
C3394      H3405   1.082       .  S
C3395      C3404   1.379       .  A
C3395      C3396   1.378   1_655  A
C3396      C3397   1.413       .  A
C3396      O3402   1.330       .  A
C3397      C3398   1.413       .  A
C3397      H3406   1.082       .  S
C3398      C3401   1.372       .  A
O3399      C3400   1.341   1_655  A
C3400      C3401   1.398       .  A
C3401      H3407   1.082       .  S
O3402      C3403   1.337       .  A
C3403      C3404   1.401   1_455  A
C3404      H3408   1.082       .  S
