geometry optimzed in LAMMPS
_audit_creation_date              2020-12-01 
_audit_creation_method            'lammps2cif' 
_symmetry_space_group_name_H-M    'P1' 
_symmetry_Int_Tables_number       1 
_symmetry_cell_setting            triclinic 
loop_ 
_symmetry_equiv_pos_as_xyz 
  x,y,z 
_cell_length_a                    44.38276275 
_cell_length_b                    44.42296801267124 
_cell_length_c                    34.32946294027429 
_cell_angle_alpha                 90.09797789182741 
_cell_angle_beta                  89.66930206250419 
_cell_angle_gamma                 119.51304585557135 
loop_ 
_atom_site_label 
_atom_site_type_symbol 
_atom_site_fract_x 
_atom_site_fract_y 
_atom_site_fract_z 
_atom_site_charge 
N1          N  0.72003657  0.76713228  0.14616067    -0.27000
N2          N  0.68594699  0.75095448  0.14365897    -0.34900
C3          C  0.67602426  0.77313672  0.13051124     0.01300
C4          C  0.70524709  0.80500467  0.12423867     0.07300
C5          C  0.73276849  0.80008887  0.13435834    -0.05800
H6          H  0.64939802  0.76626618  0.12517294     0.08000
H7          H  0.76008656  0.81852880  0.13199909     0.09200
Cu8        Cu  0.65450055  0.69866105  0.15403776     0.44200
Cu9        Cu  0.74708658  0.74300516  0.16511726     0.42000
Cu10       Cu  0.69656180  0.64960507  0.17948947     0.43900
N11         N  0.62875594  0.64526616  0.15761227    -0.34400
N12         N  0.64408394  0.62709052  0.16618651    -0.28700
C13         C  0.62023887  0.59326766  0.16574541    -0.04800
C14         C  0.58837271  0.58993858  0.15615504     0.07400
C15         C  0.59488350  0.62360509  0.15148223     0.01200
H16         H  0.62567245  0.57259039  0.17220079     0.08900
H17         H  0.57631556  0.63198751  0.14521558     0.08000
N18         N  0.74853362  0.67968706  0.19462461    -0.35900
N19         N  0.76665142  0.71352996  0.18938711    -0.28100
C20         C  0.79863407  0.72534252  0.20374955    -0.03300
C21         C  0.80094782  0.69775254  0.21913662     0.05300
C22         C  0.76867370  0.66910391  0.21240231     0.03400
H23         H  0.81853402  0.75228531  0.20376020     0.08500
H24         H  0.76035070  0.64247370  0.21956537     0.07300
N25         N  0.71857539  0.97632265  0.03501155    -0.27000
N26         N  0.68440114  0.95937577  0.03730588    -0.34900
C27         C  0.67382457  0.92751798  0.05146355     0.01300
C28         C  0.70267096  0.92395494  0.05809838     0.07300
C29         C  0.73062734  0.95560443  0.04769919    -0.05800
H30         H  0.64705078  0.90864399  0.05716149     0.08000
H31         H  0.75773637  0.96291845  0.04883231     0.09200
Cu32       Cu  0.65324326  0.98000407  0.02177280     0.44200
Cu33       Cu  0.74712145  0.02668368  0.01430549     0.42000
Cu34       Cu  0.69772744  0.06960236  0.49210747     0.43900
N35         N  0.62790042  0.00727984  0.00840177    -0.34400
N36         N  0.64425112  0.04040309  0.49875558    -0.28700
C37         C  0.62082686  0.05100242  0.49428459    -0.04800
C38         C  0.58818764  0.02317297  0.50132282     0.07400
C39         C  0.59362992  0.99581483  0.00988140     0.01200
H40         H  0.62709502  0.07703113  0.48643156     0.08900
H41         H  0.57420435  0.96975891  0.01771762     0.08000
N42         N  0.75110731  0.09250756  0.48471755    -0.35900
N43         N  0.76898879  0.07655553  0.49190713    -0.28100
C44         C  0.80229104  0.09748498  0.48170721    -0.03300
C45         C  0.80564632  0.12827081  0.46798280     0.05300
C46         C  0.77266644  0.12416775  0.47023051     0.03400
H47         H  0.82253091  0.09070557  0.48386180     0.08500
H48         H  0.76469541  0.14238862  0.46075693     0.07300
N49         N  0.97625386  0.28017806  0.36753234    -0.27000
N50         N  0.96218069  0.29895314  0.37890863    -0.34900
C51         C  0.93200104  0.27841100  0.39709542     0.01300
C52         C  0.92638768  0.24479081  0.39761927     0.07300
C53         C  0.95536217  0.24713391  0.37873807    -0.05800
H54         H  0.91528079  0.28748525  0.40894987     0.08000
H55         H  0.96154933  0.22671735  0.37426683     0.09200
Cu56       Cu  0.98410353  0.35190355  0.37049462     0.44200
Cu57       Cu  0.02352800  0.30068443  0.33737288     0.42000
Cu58       Cu  0.06511619  0.39361745  0.32016548     0.43900
N59         N  0.00921186  0.40405698  0.35620960    -0.34400
N60         N  0.03865465  0.41918814  0.33657726    -0.28700
C61         C  0.04753119  0.45236292  0.32995298    -0.04800
C62         C  0.02245209  0.45869013  0.34624930     0.07400
C63         C  0.99876141  0.42731706  0.36310717     0.01200
H64         H  0.07045029  0.47039923  0.31398408     0.08900
H65         H  0.97583829  0.42161152  0.37975227     0.08000
N66         N  0.08720776  0.36346881  0.30553255    -0.35900
N67         N  0.07200126  0.32954507  0.31031389    -0.28100
C68         C  0.09328138  0.31839808  0.29634053    -0.03300
C69         C  0.12347845  0.34677903  0.28290693     0.05300
C70         C  0.11851585  0.37479510  0.28907709     0.03400
H71         H  0.08747496  0.29171575  0.29648956     0.08500
H72         H  0.13613479  0.40148900  0.28150264     0.07300
N73         N  0.33023322  0.28263110  0.14359140    -0.27000
N74         N  0.36424676  0.29992922  0.13914703    -0.34900
C75         C  0.37498755  0.27824932  0.12594032     0.01300
C76         C  0.34639329  0.24562383  0.12188861     0.07300
C77         C  0.31842303  0.24948645  0.13306644    -0.05800
H78         H  0.40154231  0.28602945  0.11844411     0.08000
H79         H  0.29142698  0.22969586  0.13328470     0.09200
Cu80       Cu  0.39429028  0.35280897  0.14819225     0.44200
Cu81       Cu  0.30160478  0.30539949  0.16283508     0.42000
Cu82       Cu  0.34837393  0.39915084  0.17149095     0.43900
N83         N  0.41818035  0.40625203  0.15309737    -0.34400
N84         N  0.40135127  0.42339075  0.15993008    -0.28700
C85         C  0.42426149  0.45753837  0.16049640    -0.04800
C86         C  0.45704062  0.46196130  0.15431247     0.07400
C87         C  0.45220803  0.42893911  0.14970030     0.01200
H88         H  0.41771421  0.47755913  0.16643412     0.08900
H89         H  0.47200954  0.42190344  0.14448906     0.08000
N90         N  0.29622618  0.36831561  0.18596636    -0.35900
N91         N  0.27927894  0.33423498  0.18274414    -0.28100
C92         C  0.24660806  0.32204083  0.19563222    -0.03300
C93         C  0.24255853  0.34972042  0.20746269     0.05300
C94         C  0.27474121  0.37862814  0.20112426     0.03400
H95         H  0.22763254  0.29486003  0.19755774     0.08500
H96         H  0.28213344  0.40524254  0.20744894     0.07300
N97         N  0.32869053  0.07243381  0.03042968    -0.27000
N98         N  0.36282334  0.08918646  0.03261923    -0.34900
C99         C  0.37333343  0.12099234  0.04707124     0.01300
C100        C  0.34443280  0.12459163  0.05421643     0.07300
C101        C  0.31657755  0.09301343  0.04355539    -0.05800
H102        H  0.40010261  0.14004420  0.05221928     0.08000
H103        H  0.28936691  0.08494899  0.04626203     0.09200
Cu104      Cu  0.39310510  0.06700238  0.01786990     0.44200
Cu105      Cu  0.29996041  0.02196906  0.01077184     0.42000
Cu106      Cu  0.34604440  0.97454893  0.49744981     0.43900
N107        N  0.41679122  0.03750087  0.00636953    -0.34400
N108        N  0.39973207  0.00376092  0.50026832    -0.28700
C109        C  0.42262328  0.99241143  0.49591970    -0.04800
C110        C  0.45590958  0.02039956  0.49894312     0.07400
C111        C  0.45095456  0.04849673  0.00574374     0.01200
H112        H  0.41525101  0.96550815  0.49215306     0.08900
H113        H  0.47073990  0.07507632  0.01035389     0.08000
N114        N  0.29308576  0.95321302  0.48865242    -0.35900
N115        N  0.27660520  0.97107384  0.49200555    -0.28100
C116        C  0.24356259  0.95116811  0.48074609    -0.03300
C117        C  0.23882715  0.91903057  0.47038371     0.05300
C118        C  0.27078536  0.92126120  0.47568063     0.03400
H119        H  0.22449679  0.95960481  0.47974222     0.08500
H120        H  0.27771597  0.90164626  0.46890281     0.07300
N121        N  0.07077324  0.76940980  0.36704658    -0.27000
N122        N  0.08577475  0.75101916  0.37612826    -0.34900
C123        C  0.11577234  0.77147022  0.39429094     0.01300
C124        C  0.12019638  0.80453145  0.39695643     0.07300
C125        C  0.09092393  0.80214121  0.37945604    -0.05800
H126        H  0.13305904  0.76274440  0.40497849     0.08000
H127        H  0.08406317  0.82227113  0.37698323     0.09200
Cu128      Cu  0.06472202  0.69853343  0.36556200     0.44200
Cu129      Cu  0.02290396  0.74846340  0.33947323     0.42000
Cu130      Cu  0.97910049  0.65477504  0.32637206     0.43900
N131        N  0.03863272  0.64604037  0.35339465    -0.34400
N132        N  0.00709627  0.62991613  0.33881517    -0.28700
C133        C  0.99753077  0.59639419  0.33351575    -0.04800
C134        C  0.02439980  0.59099317  0.34523238     0.07400
C135        C  0.04991034  0.62318671  0.35806409     0.01200
H136        H  0.97289293  0.57743794  0.32157523     0.08900
H137        H  0.07461583  0.62963432  0.37067596     0.08000
N138        N  0.95775306  0.68554107  0.31160097    -0.35900
N139        N  0.97394607  0.71962852  0.31491646    -0.28100
C140        C  0.95336961  0.73138999  0.30088234    -0.03300
C141        C  0.92274581  0.70333627  0.28831258     0.05300
C142        C  0.92640561  0.67473674  0.29587390     0.03400
H143        H  0.96000661  0.75831669  0.30049716     0.08500
H144        H  0.90784548  0.64801053  0.28972704     0.07300
C145        C  0.14942545  0.83475318  0.41641982     0.00100
C146        C  0.16568713  0.82853518  0.44802894    -0.11800
C147        C  0.19440737  0.85557182  0.46633852     0.02300
C148        C  0.20741943  0.88985199  0.45331093     0.00000
C149        C  0.19073046  0.89638853  0.42256460    -0.11700
C150        C  0.16223948  0.86929601  0.40381142     0.02200
H151        H  0.15586937  0.80238568  0.45872404     0.15200
H152        H  0.20078332  0.92269673  0.41221986     0.15200
C153        C  0.14827835  0.87777365  0.37038246     0.36800
C154        C  0.20931590  0.84754359  0.49926649     0.36700
N155        N  0.13738527  0.88488538  0.34353503    -0.43500
N156        N  0.22113499  0.84106595  0.52574430    -0.43500
C157        C  0.34385759  0.15506560  0.07168159     0.00100
C158        C  0.36977791  0.17568097  0.09843286    -0.11800
C159        C  0.37081241  0.20484901  0.11551908     0.02300
C160        C  0.34556674  0.21412622  0.10589359     0.00000
C161        C  0.31932610  0.19331778  0.07966765    -0.11700
C162        C  0.31838884  0.16425393  0.06231757     0.02200
H163        H  0.38913954  0.16874505  0.10656520     0.15200
H164        H  0.30000580  0.20039343  0.07174650     0.15200
C165        C  0.29202930  0.14567201  0.03356168     0.36800
C166        C  0.39724678  0.22389066  0.14405768     0.36700
N167        N  0.27083580  0.13096360  0.51049909    -0.43500
N168        N  0.41839950  0.23905765  0.16700363    -0.43500
C169        C  0.02214900  0.49220341  0.34596101     0.00100
C170        C  0.05378833  0.52317589  0.34182256    -0.11800
C171        C  0.05527667  0.55543213  0.34078951     0.02300
C172        C  0.02463399  0.55751117  0.34517218     0.00000
C173        C  0.99297624  0.52658420  0.34886704    -0.11700
C174        C  0.99135407  0.49426222  0.34871183     0.02200
H175        H  0.07771890  0.52237442  0.33914909     0.15200
H176        H  0.96911154  0.52750860  0.35174705     0.15200
C177        C  0.95742607  0.46396599  0.34929931     0.36800
C178        C  0.08846109  0.58550101  0.33296207     0.36700
N179        N  0.93000980  0.43994987  0.34956919    -0.43500
N180        N  0.11517543  0.60936697  0.32639982    -0.43500
C181        C  0.21160458  0.34861564  0.22610718     0.00100
C182        C  0.21652528  0.37229907  0.25592174    -0.11800
C183        C  0.18830634  0.37189712  0.27500558     0.02300
C184        C  0.15412240  0.34728476  0.26452092     0.00000
C185        C  0.14910218  0.32355933  0.23480604    -0.11700
C186        C  0.17734600  0.32434453  0.21521342     0.02200
H187        H  0.24257013  0.39090913  0.26488160     0.15200
H188        H  0.12296910  0.30506367  0.22596199     0.15200
C189        C  0.17029624  0.30144434  0.18246465     0.36800
C190        C  0.19524469  0.39620606  0.30627154     0.36700
N191        N  0.16456040  0.28326614  0.15600721    -0.43500
N192        N  0.20089472  0.41569629  0.33134459    -0.43500
C193        C  0.48964153  0.02053853  0.49849054     0.00100
C194        C  0.51740927  0.04617883  0.01991322    -0.11800
C195        C  0.54959808  0.04755080  0.02108517     0.02300
C196        C  0.55462899  0.02277274  0.50075583     0.00000
C197        C  0.52708453  0.99701077  0.47950609    -0.11700
C198        C  0.49498293  0.99593475  0.47768537     0.02200
H199        H  0.51390713  0.06497619  0.03657825     0.15200
H200        H  0.53095147  0.97810812  0.46346520     0.15200
C201        C  0.46890227  0.97028563  0.45269912     0.36800
C202        C  0.57650198  0.07365997  0.04494064     0.36700
N203        N  0.44828601  0.94964755  0.43244606    -0.43500
N204        N  0.59801561  0.09451277  0.06416820    -0.43500
C205        C  0.83710386  0.15801827  0.45133199     0.00100
C206        C  0.85576322  0.15200498  0.42219481    -0.11800
C207        C  0.88456629  0.17949144  0.40396269     0.02300
C208        C  0.89615212  0.21405491  0.41593107     0.00000
C209        C  0.87764435  0.21971164  0.44590004    -0.11700
C210        C  0.84826197  0.19227345  0.46317540     0.02200
H211        H  0.84696496  0.12570687  0.41257115     0.15200
H212        H  0.88609040  0.24572025  0.45616692     0.15200
C213        C  0.83053901  0.19991038  0.49373198     0.36800
C214        C  0.89996530  0.17113503  0.37158592     0.36700
N215        N  0.81631505  0.20602386  0.01819247    -0.43500
N216        N  0.91181935  0.16392331  0.34552232    -0.43500
C217        C  0.55440211  0.55741790  0.15470397     0.00100
C218        C  0.54853220  0.53053147  0.18052330    -0.11800
C219        C  0.51698171  0.49949922  0.18096506     0.02300
C220        C  0.49041217  0.49473684  0.15514730     0.00000
C221        C  0.49593655  0.52152113  0.12946974    -0.11700
C222        C  0.52767299  0.55256831  0.12872779     0.02200
H223        H  0.56842828  0.53396328  0.20107560     0.15200
H224        H  0.47566796  0.51783698  0.10931676     0.15200
C225        C  0.53246948  0.57808605  0.09973215     0.36800
C226        C  0.51192117  0.47355251  0.20948987     0.36700
N227        N  0.53616389  0.59837765  0.07633553    -0.43500
N228        N  0.50776885  0.45283579  0.23250664    -0.43500
C229        C  0.83178023  0.69919548  0.23802585     0.00100
C230        C  0.86498454  0.72421368  0.22526089    -0.11800
C231        C  0.89492881  0.72650752  0.24159194     0.02300
C232        C  0.89205700  0.70316678  0.27114443     0.00000
C233        C  0.85898634  0.67843306  0.28425604    -0.11700
C234        C  0.82904244  0.67661883  0.26857582     0.02200
H235        H  0.86765276  0.74174379  0.20186627     0.15200
H236        H  0.85654737  0.66086525  0.30753655     0.15200
C237        C  0.79618072  0.65269770  0.28609822     0.36800
C238        C  0.92813970  0.75204871  0.22620802     0.36700
N239        N  0.76996291  0.63365204  0.30051596    -0.43500
N240        N  0.95470316  0.77258224  0.21379989    -0.43500
C241        C  0.70604256  0.83611993  0.10705756     0.00100
C242        C  0.67982546  0.83116752  0.08080038    -0.11800
C243        C  0.67839283  0.85916851  0.06426121     0.02300
C244        C  0.70363409  0.89333954  0.07390891     0.00000
C245        C  0.73030427  0.89843369  0.09953923    -0.11700
C246        C  0.73162839  0.87033219  0.11631531     0.02200
H247        H  0.66044285  0.80517956  0.07258984     0.15200
H248        H  0.74972115  0.92453157  0.10738218     0.15200
C249        C  0.75855267  0.87763717  0.14425379     0.36800
C250        C  0.65143677  0.85179397  0.03631952     0.36700
N251        N  0.78021701  0.88373884  0.16664243    -0.43500
N252        N  0.62973156  0.84562262  0.01396949    -0.43500
N253        N  0.72003634  0.76713224  0.64616095    -0.27000
N254        N  0.68594676  0.75095437  0.64365922    -0.34900
C255        C  0.67602396  0.77313655  0.63051149     0.01300
C256        C  0.70524674  0.80500451  0.62423893     0.07300
C257        C  0.73276819  0.80008881  0.63435864    -0.05800
H258        H  0.64939771  0.76626595  0.62517311     0.08000
H259        H  0.76008624  0.81852879  0.63199941     0.09200
Cu260      Cu  0.65450048  0.69866092  0.65403775     0.44200
Cu261      Cu  0.74708648  0.74300530  0.66511757     0.42000
Cu262      Cu  0.69656178  0.64960504  0.67949000     0.43900
N263        N  0.62875602  0.64526602  0.65761218    -0.34400
N264        N  0.64408408  0.62709045  0.66618657    -0.28700
C265        C  0.62023913  0.59326756  0.66574534    -0.04800
C266        C  0.58837297  0.58993836  0.65615472     0.07400
C267        C  0.59488366  0.62360484  0.65148190     0.01200
H268        H  0.62567277  0.57259035  0.67220084     0.08900
H269        H  0.57631564  0.63198716  0.64521503     0.08000
N270        N  0.74853353  0.67968718  0.69462504    -0.35900
N271        N  0.76665133  0.71353004  0.68938746    -0.28100
C272        C  0.79863405  0.72534256  0.70374978    -0.03300
C273        C  0.80094777  0.69775254  0.71913682     0.05300
C274        C  0.76867360  0.66910394  0.71240266     0.03400
H275        H  0.81853404  0.75228530  0.70376031     0.08500
H276        H  0.76035061  0.64247381  0.71956569     0.07300
N277        N  0.71857512  0.97632241  0.53501143    -0.27000
N278        N  0.68440083  0.95937541  0.53730542    -0.34900
C279        C  0.67382425  0.92751757  0.55146293     0.01300
C280        C  0.70267062  0.92395456  0.55809801     0.07300
C281        C  0.73062701  0.95560417  0.54769910    -0.05800
H282        H  0.64705041  0.90864352  0.55716067     0.08000
H283        H  0.75773609  0.96291826  0.54883244     0.09200
Cu284      Cu  0.65324291  0.98000373  0.52177249     0.44200
Cu285      Cu  0.74712118  0.02668357  0.51430577     0.42000
Cu286      Cu  0.69772775  0.06960255  0.99210686     0.43900
N287        N  0.62790009  0.00727965  0.50840232    -0.34400
N288        N  0.64425142  0.04040320  0.99875470    -0.28700
C289        C  0.62082714  0.05100246  0.99428329    -0.04800
C290        C  0.58818792  0.02317303  0.00132162     0.07400
C291        C  0.59362961  0.99581468  0.50988215     0.01200
H292        H  0.62709528  0.07703110  0.98642997     0.08900
H293        H  0.57420404  0.96975871  0.51771816     0.08000
N294        N  0.75110761  0.09250771  0.98471724    -0.35900
N295        N  0.76898905  0.07655564  0.99190682    -0.28100
C296        C  0.80229129  0.09748506  0.98170687    -0.03300
C297        C  0.80564661  0.12827091  0.96798247     0.05300
C298        C  0.77266676  0.12416790  0.97023020     0.03400
H299        H  0.82253113  0.09070561  0.98386146     0.08500
H300        H  0.76469576  0.14238880  0.96075662     0.07300
N301        N  0.97625424  0.28017825  0.86753227    -0.27000
N302        N  0.96218121  0.29895336  0.87890892    -0.34900
C303        C  0.93200157  0.27841122  0.89709571     0.01300
C304        C  0.92638803  0.24479097  0.89761916     0.07300
C305        C  0.95536245  0.24713404  0.87873776    -0.05800
H306        H  0.91528143  0.28748551  0.90895040     0.08000
H307        H  0.96154943  0.22671742  0.87426621     0.09200
Cu308      Cu  0.98410409  0.35190378  0.87049544     0.44200
Cu309      Cu  0.02352826  0.30068461  0.83737261     0.42000
Cu310      Cu  0.06511607  0.39361765  0.82016515     0.43900
N311        N  0.00921224  0.40405720  0.85621050    -0.34400
N312        N  0.03865472  0.41918833  0.83657759    -0.28700
C313        C  0.04753119  0.45236313  0.82995352    -0.04800
C314        C  0.02245233  0.45869036  0.84625055     0.07400
C315        C  0.99876196  0.42731731  0.86310869     0.01200
H316        H  0.07045008  0.47039943  0.81398433     0.08900
H317        H  0.97583912  0.42161181  0.87975437     0.08000
N318        N  0.08720775  0.36346915  0.80553212    -0.35900
N319        N  0.07200143  0.32954542  0.81031363    -0.28100
C320        C  0.09328168  0.31839858  0.79634036    -0.03300
C321        C  0.12347864  0.34677957  0.78290659     0.05300
C322        C  0.11851580  0.37479552  0.78907658     0.03400
H323        H  0.08747538  0.29171626  0.79648959     0.08500
H324        H  0.13613459  0.40148946  0.78150199     0.07300
N325        N  0.33023295  0.28263109  0.64359134    -0.27000
N326        N  0.36424642  0.29992916  0.63914666    -0.34900
C327        C  0.37498712  0.27824926  0.62593973     0.01300
C328        C  0.34639280  0.24562378  0.62188829     0.07300
C329        C  0.31842263  0.24948640  0.63306643    -0.05800
H330        H  0.40154173  0.28602937  0.61844312     0.08000
H331        H  0.29142657  0.22969583  0.63328483     0.09200
Cu332      Cu  0.39429004  0.35280892  0.64819136     0.44200
Cu333      Cu  0.30160494  0.30539990  0.66283506     0.42000
Cu334      Cu  0.34837404  0.39915108  0.67148949     0.43900
N335        N  0.41818039  0.40625196  0.65309624    -0.34400
N336        N  0.40135144  0.42339083  0.65992883    -0.28700
C337        C  0.42426182  0.45753842  0.66049517    -0.04800
C338        C  0.45704088  0.46196114  0.65431141     0.07400
C339        C  0.45220812  0.42893887  0.64969931     0.01200
H340        H  0.41771469  0.47755932  0.66643279     0.08900
H341        H  0.47200952  0.42190303  0.64448827     0.08000
N342        N  0.29622632  0.36831611  0.68596549    -0.35900
N343        N  0.27927912  0.33423543  0.68274385    -0.28100
C344        C  0.24660837  0.32204135  0.69563226    -0.03300
C345        C  0.24255881  0.34972105  0.70746230     0.05300
C346        C  0.27474139  0.37862872  0.70112330     0.03400
H347        H  0.22763296  0.29486054  0.69755827     0.08500
H348        H  0.28213358  0.40524323  0.70744749     0.07300
N349        N  0.32869047  0.07243441  0.53042809    -0.27000
N350        N  0.36282329  0.08918712  0.53261784    -0.34900
C351        C  0.37333322  0.12099293  0.54706991     0.01300
C352        C  0.34443256  0.12459217  0.55421493     0.07300
C353        C  0.31657738  0.09301398  0.54355367    -0.05800
H354        H  0.40010240  0.14004484  0.55221828     0.08000
H355        H  0.28936672  0.08494948  0.54626013     0.09200
Cu356      Cu  0.39310510  0.06700292  0.51786906     0.44200
Cu357      Cu  0.29996045  0.02196956  0.51077042     0.42000
Cu358      Cu  0.34604445  0.97454860  0.99744919     0.43900
N359        N  0.41679132  0.03750134  0.50637000    -0.34400
N360        N  0.39973206  0.00376053  0.00026755    -0.28700
C361        C  0.42262332  0.99241111  0.99591872    -0.04800
C362        C  0.45590960  0.02039928  0.99894221     0.07400
C363        C  0.45095463  0.04849709  0.50574431     0.01200
H364        H  0.41525109  0.96550787  0.99215196     0.08900
H365        H  0.47074013  0.07507677  0.51035420     0.08000
N366        N  0.29308591  0.95321299  0.98865178    -0.35900
N367        N  0.27660530  0.97107373  0.99200559    -0.28100
C368        C  0.24356271  0.95116810  0.98074609    -0.03300
C369        C  0.23882731  0.91903074  0.97038297     0.05300
C370        C  0.27078556  0.92126134  0.97567950     0.03400
H371        H  0.22449679  0.95960476  0.97974280     0.08500
H372        H  0.27771619  0.90164655  0.96890120     0.07300
N373        N  0.07077360  0.76941023  0.86704533    -0.27000
N374        N  0.08577510  0.75101959  0.87612717    -0.34900
C375        C  0.11577270  0.77147071  0.89428970     0.01300
C376        C  0.12019679  0.80453194  0.89695505     0.07300
C377        C  0.09092434  0.80214169  0.87945458    -0.05800
H378        H  0.13305936  0.76274483  0.90497746     0.08000
H379        H  0.08406357  0.82227160  0.87698173     0.09200
Cu380      Cu  0.06472215  0.69853373  0.86556189     0.44200
Cu381      Cu  0.02290416  0.74846354  0.83947254     0.42000
Cu382      Cu  0.97910026  0.65477493  0.82637265     0.43900
N383        N  0.03863259  0.64604047  0.85339533    -0.34400
N384        N  0.00709601  0.62991606  0.83881620    -0.28700
C385        C  0.99753039  0.59639403  0.83351730    -0.04800
C386        C  0.02439949  0.59099313  0.84523392     0.07400
C387        C  0.04991020  0.62318683  0.85806504     0.01200
H388        H  0.97289247  0.57743764  0.82157700     0.08900
H389        H  0.07461580  0.62963454  0.87067659     0.08000
N390        N  0.95775293  0.68554092  0.81160118    -0.35900
N391        N  0.97394611  0.71962842  0.81491616    -0.28100
C392        C  0.95336968  0.73138982  0.80088181    -0.03300
C393        C  0.92274573  0.70333602  0.78831251     0.05300
C394        C  0.92640545  0.67473652  0.79587422     0.03400
H395        H  0.96000679  0.75831653  0.80049616     0.08500
H396        H  0.90784522  0.64801023  0.78972769     0.07300
C397        C  0.14942573  0.83475359  0.91641865     0.00100
C398        C  0.16568730  0.82853550  0.94802782    -0.11800
C399        C  0.19440747  0.85557206  0.96633755     0.02300
C400        C  0.20741960  0.88985226  0.95331005     0.00000
C401        C  0.19073076  0.89638889  0.92256365    -0.11700
C402        C  0.16223983  0.86929644  0.90381035     0.02200
H403        H  0.15586951  0.80238596  0.95872281     0.15200
H404        H  0.20078369  0.92269712  0.91221894     0.15200
C405        C  0.14827881  0.87777420  0.87038137     0.36800
C406        C  0.20931590  0.84754376  0.99926557     0.36700
N407        N  0.13738581  0.88488610  0.84353400    -0.43500
N408        N  0.22113484  0.84106602  0.02574345    -0.43500
C409        C  0.34385721  0.15506594  0.57168043     0.00100
C410        C  0.36977743  0.17568110  0.59843194    -0.11800
C411        C  0.37081188  0.20484902  0.61551841     0.02300
C412        C  0.34556621  0.21412624  0.60589308     0.00000
C413        C  0.31932564  0.19331802  0.57966696    -0.11700
C414        C  0.31838851  0.16425435  0.56231652     0.02200
H415        H  0.38913902  0.16874516  0.60656420     0.15200
H416        H  0.30000543  0.20039377  0.57174589     0.15200
C417        C  0.29202919  0.14567275  0.53356033     0.36800
C418        C  0.39724620  0.22389047  0.64405713     0.36700
N419        N  0.27083579  0.13096264  0.01050064    -0.43500
N420        N  0.41839882  0.23905716  0.66700329    -0.43500
C421        C  0.02214907  0.49220356  0.84596248     0.00100
C422        C  0.05378828  0.52317607  0.84182346    -0.11800
C423        C  0.05527645  0.55543225  0.84079057     0.02300
C424        C  0.02463379  0.55751119  0.84517389     0.00000
C425        C  0.99297616  0.52658423  0.84886938    -0.11700
C426        C  0.99135412  0.49426229  0.84871414     0.02200
H427        H  0.07771883  0.52237471  0.83914940     0.15200
H428        H  0.96911150  0.52750860  0.85174989     0.15200
C429        C  0.95742618  0.46396604  0.84930238     0.36800
C430        C  0.08846067  0.58550111  0.83296238     0.36700
N431        N  0.93000996  0.43994984  0.84957271    -0.43500
N432        N  0.11517486  0.60936706  0.82639946    -0.43500
C433        C  0.21160488  0.34861641  0.72610672     0.00100
C434        C  0.21652555  0.37230020  0.75592083    -0.11800
C435        C  0.18830661  0.37189815  0.77500480     0.02300
C436        C  0.15412265  0.34728542  0.76452056     0.00000
C437        C  0.14910248  0.32355976  0.73480598    -0.11700
C438        C  0.17734630  0.32434494  0.71521339     0.02200
H439        H  0.24257044  0.39091060  0.76488033     0.15200
H440        H  0.12296938  0.30506382  0.72596218     0.15200
C441        C  0.17029655  0.30144422  0.68246513     0.36800
C442        C  0.19524497  0.39620743  0.80627037     0.36700
N443        N  0.16456079  0.28326561  0.65600811    -0.43500
N444        N  0.20089502  0.41569790  0.83134318    -0.43500
C445        C  0.48964167  0.02053840  0.99848936     0.00100
C446        C  0.51740894  0.04617855  0.51991503    -0.11800
C447        C  0.54959770  0.04755041  0.52108708     0.02300
C448        C  0.55462926  0.02277281  0.00075450     0.00000
C449        C  0.52708464  0.99701043  0.97950534    -0.11700
C450        C  0.49498300  0.99593435  0.97768467     0.02200
H451        H  0.51390666  0.06497566  0.53658039     0.15200
H452        H  0.53095144  0.97810751  0.96346492     0.15200
C453        C  0.46890217  0.97028471  0.95269904     0.36800
C454        C  0.57650138  0.07365908  0.54494322     0.36700
N455        N  0.44828575  0.94964616  0.93244654    -0.43500
N456        N  0.59801478  0.09451147  0.56417139    -0.43500
C457        C  0.83710417  0.15801839  0.95133171     0.00100
C458        C  0.85576337  0.15200513  0.92219427    -0.11800
C459        C  0.88456639  0.17949161  0.90396209     0.02300
C460        C  0.89615240  0.21405503  0.91593079     0.00000
C461        C  0.87764480  0.21971173  0.94590005    -0.11700
C462        C  0.84826240  0.19227352  0.96317538     0.02200
H463        H  0.84696500  0.12570706  0.91257046     0.15200
H464        H  0.88609098  0.24572027  0.95616714     0.15200
C465        C  0.83053956  0.19991042  0.99373216     0.36800
C466        C  0.89996521  0.17113524  0.87158503     0.36700
N467        N  0.81631437  0.20602383  0.51819213    -0.43500
N468        N  0.91181913  0.16392356  0.84552128    -0.43500
C469        C  0.55440246  0.55741759  0.65470333     0.00100
C470        C  0.54853237  0.53053113  0.68052273    -0.11800
C471        C  0.51698182  0.49949893  0.68096439     0.02300
C472        C  0.49041251  0.49473655  0.65514631     0.00000
C473        C  0.49593717  0.52152073  0.62946843    -0.11700
C474        C  0.52767359  0.55256794  0.62872675     0.02200
H475        H  0.56842834  0.53396292  0.70107519     0.15200
H476        H  0.47566883  0.51783649  0.60931508     0.15200
C477        C  0.53247034  0.57808562  0.59973090     0.36800
C478        C  0.51192108  0.47355221  0.70948929     0.36700
N479        N  0.53616498  0.59837712  0.57633405    -0.43500
N480        N  0.50776866  0.45283546  0.73250605    -0.43500
C481        C  0.83178016  0.69919531  0.73802589     0.00100
C482        C  0.86498448  0.72421323  0.72526059    -0.11800
C483        C  0.89492873  0.72650705  0.74159164     0.02300
C484        C  0.89205692  0.70316652  0.77114438     0.00000
C485        C  0.85898623  0.67843300  0.78425624    -0.11700
C486        C  0.82904234  0.67661878  0.76857603     0.02200
H487        H  0.86765269  0.74174314  0.70186576     0.15200
H488        H  0.85654727  0.66086532  0.80753696     0.15200
C489        C  0.79618060  0.65269791  0.78609866     0.36800
C490        C  0.92813962  0.75204794  0.72620732     0.36700
N491        N  0.76996281  0.63365258  0.80051666    -0.43500
N492        N  0.95470302  0.77258112  0.71379875    -0.43500
C493        C  0.70604216  0.83611967  0.60705769     0.00100
C494        C  0.67982507  0.83116716  0.58080046    -0.11800
C495        C  0.67839244  0.85916809  0.56426110     0.02300
C496        C  0.70363371  0.89333918  0.57390869     0.00000
C497        C  0.73030384  0.89843339  0.59953911    -0.11700
C498        C  0.73162797  0.87033196  0.61631533     0.02200
H499        H  0.66044250  0.80517915  0.57258998     0.15200
H500        H  0.74972066  0.92453129  0.60738208     0.15200
C501        C  0.75855213  0.87763704  0.64425398     0.36800
C502        C  0.65143651  0.85179345  0.53631919     0.36700
N503        N  0.78021639  0.88373882  0.66664280    -0.43500
N504        N  0.62973147  0.84562203  0.51396889    -0.43500
loop_ 
_geom_bond_atom_site_label_1 
_geom_bond_atom_site_label_2 
_geom_bond_distance 
_geom_bond_site_symmetry_2 
_ccdc_geom_bond_type 
N1            N2   1.320       .  A
N1            C5   1.346       .  A
N1           Cu9   2.072       .  S
N2            C3   1.342       .  A
N2           Cu8   2.067       .  S
C3            C4   1.386       .  A
C3            H6   1.082       .  S
C4            C5   1.389       .  A
C4          C241   1.488       .  S
C5            H7   1.081       .  S
Cu8          N11   2.068       .  S
Cu9          N19   2.072       .  S
Cu10         N12   2.085       .  S
Cu10         N18   2.086       .  S
N11          N12   1.321       .  A
N11          C15   1.345       .  A
N12          C13   1.346       .  A
C13          C14   1.389       .  A
C13          H16   1.082       .  S
C14          C15   1.386       .  A
C14         C217   1.489       .  S
C15          H17   1.081       .  S
N18          N19   1.322       .  A
N18          C22   1.347       .  A
N19          C20   1.344       .  A
C20          C21   1.385       .  A
C20          H23   1.082       .  S
C21          C22   1.390       .  A
C21         C229   1.490       .  S
C22          H24   1.080       .  S
N25          N26   1.322       .  A
N25          C29   1.346       .  A
N25         Cu33   2.078   1_565  S
N26          C27   1.343       .  A
N26         Cu32   2.072       .  S
C27          C28   1.385       .  A
C27          H30   1.081       .  S
C28          C29   1.386       .  A
C28         C244   1.485       .  S
C29          H31   1.082       .  S
Cu32         N35   2.072   1_565  S
Cu33        N295   2.079   1_554  S
Cu34         N36   2.081       .  S
Cu34         N42   2.081       .  S
N35         N288   1.322   1_554  A
N35          C39   1.346   1_545  A
N36         N287   1.322       .  A
N36          C37   1.346       .  A
C37          C38   1.385       .  A
C37          H40   1.082       .  S
C38         C291   1.383   1_545  A
C38         C196   1.481       .  S
C39         C290   1.383   1_565  A
C39          H41   1.082       .  S
N42          N43   1.323       .  A
N42          C46   1.346       .  A
N43          C44   1.346       .  A
N43        Cu285   2.079       .  S
C44          C45   1.384       .  A
C44          H47   1.082       .  S
C45          C46   1.385       .  A
C45         C205   1.483       .  S
C46          H48   1.082       .  S
N49          N50   1.322       .  A
N49          C53   1.349       .  A
N49         Cu57   2.097   1_655  S
N50          C51   1.343       .  A
N50         Cu56   2.075       .  S
C51          C52   1.388       .  A
C51          H54   1.081       .  S
C52          C53   1.394       .  A
C52         C208   1.499       .  S
C53          H55   1.080       .  S
Cu56         N59   2.075   1_655  S
Cu57         N67   2.097       .  S
Cu58         N60   2.072       .  S
Cu58         N66   2.072       .  S
N59          N60   1.319       .  A
N59          C63   1.345   1_455  A
N60          C61   1.344       .  A
C61          C62   1.390       .  A
C61          H64   1.081       .  S
C62          C63   1.391   1_455  A
C62         C169   1.495       .  S
C63          H65   1.080       .  S
N66          N67   1.323       .  A
N66          C70   1.344       .  A
N67          C68   1.350       .  A
C68          C69   1.389       .  A
C68          H71   1.082       .  S
C69          C70   1.382       .  A
C69         C184   1.486       .  S
C70          H72   1.082       .  S
N73          N74   1.322       .  A
N73          C77   1.347       .  A
N73         Cu81   2.080       .  S
N74          C75   1.345       .  A
N74         Cu80   2.076       .  S
C75          C76   1.386       .  A
C75          H78   1.082       .  S
C76          C77   1.386       .  A
C76         C160   1.486       .  S
C77          H79   1.082       .  S
Cu80         N83   2.076       .  S
Cu81         N91   2.081       .  S
Cu82         N84   2.084       .  S
Cu82         N90   2.085       .  S
N83          N84   1.323       .  A
N83          C87   1.345       .  A
N84          C85   1.348       .  A
C85          C86   1.384       .  A
C85          H88   1.082       .  S
C86          C87   1.383       .  A
C86         C220   1.480       .  S
C87          H89   1.082       .  S
N90          N91   1.322       .  A
N90          C94   1.347       .  A
N91          C92   1.346       .  A
C92          C93   1.387       .  A
C92          H95   1.081       .  S
C93          C94   1.388       .  A
C93         C181   1.491       .  S
C94          H96   1.082       .  S
N97          N98   1.321       .  A
N97         C101   1.345       .  A
N97        Cu105   2.073       .  S
N98          C99   1.346       .  A
N98        Cu104   2.081       .  S
C99         C100   1.389       .  A
C99         H102   1.082       .  S
C100        C101   1.387       .  A
C100        C157   1.491       .  S
C101        H103   1.081       .  S
Cu104       N107   2.081       .  S
Cu105       N367   2.072   1_544  S
Cu106       N108   2.080   1_565  S
Cu106       N114   2.080       .  S
N107        N360   1.321       .  A
N107        C111   1.345       .  A
N108        N359   1.321       .  A
N108        C109   1.346   1_545  A
C109        C110   1.390   1_565  A
C109        H112   1.080       .  S
C110        C363   1.389       .  A
C110        C193   1.494       .  S
C111        C362   1.389   1_554  A
C111        H113   1.082       .  S
N114        N115   1.322       .  A
N114        C118   1.346       .  A
N115        C116   1.345       .  A
N115       Cu357   2.072   1_565  S
C116        C117   1.383       .  A
C116        H119   1.082       .  S
C117        C118   1.385       .  A
C117        C148   1.481       .  S
C118        H120   1.082       .  S
N121        N122   1.322       .  A
N121        C125   1.348       .  A
N121       Cu129   2.085       .  S
N122        C123   1.343       .  A
N122       Cu128   2.073       .  S
C123        C124   1.385       .  A
C123        H126   1.082       .  S
C124        C125   1.390       .  A
C124        C145   1.491       .  S
C125        H127   1.081       .  S
Cu128       N131   2.072       .  S
Cu129       N139   2.085   1_455  S
Cu130       N132   2.075   1_655  S
Cu130       N138   2.075       .  S
N131        N132   1.320       .  A
N131        C135   1.345       .  A
N132        C133   1.345   1_455  A
C133        C134   1.389   1_655  A
C133        H136   1.081       .  S
C134        C135   1.389       .  A
C134        C172   1.493       .  S
C135        H137   1.080       .  S
N138        N139   1.323       .  A
N138        C142   1.344       .  A
N139        C140   1.347       .  A
C140        C141   1.387       .  A
C140        H143   1.082       .  S
C141        C142   1.383       .  A
C141        C232   1.484       .  S
C142        H144   1.082       .  S
C145        C146   1.408       .  A
C145        C150   1.416       .  A
C146        C147   1.400       .  A
C146        H151   1.084       .  S
C147        C148   1.409       .  A
C147        C154   1.444       .  S
C148        C149   1.403       .  A
C149        C150   1.403       .  A
C149        H152   1.085       .  S
C150        C153   1.443       .  S
C153        N155   1.157       .  T
C154        N156   1.157       .  T
C157        C158   1.406       .  A
C157        C162   1.417       .  A
C158        C159   1.401       .  A
C158        H163   1.084       .  S
C159        C160   1.412       .  A
C159        C166   1.444       .  S
C160        C161   1.404       .  A
C161        C162   1.403       .  A
C161        H164   1.085       .  S
C162        C165   1.443       .  S
C165        N419   1.157       .  T
C166        N168   1.157       .  T
N167        C417   1.157       .  T
C169        C170   1.407       .  A
C169        C174   1.417   1_455  A
C170        C171   1.402       .  A
C170        H175   1.083       .  S
C171        C172   1.415       .  A
C171        C178   1.444       .  S
C172        C173   1.405   1_455  A
C173        C174   1.402       .  A
C173        H176   1.084       .  S
C174        C177   1.443       .  S
C177        N179   1.157       .  T
C178        N180   1.157       .  T
C181        C182   1.405       .  A
C181        C186   1.416       .  A
C182        C183   1.402       .  A
C182        H187   1.084       .  S
C183        C184   1.413       .  A
C183        C190   1.444       .  S
C184        C185   1.403       .  A
C185        C186   1.404       .  A
C185        H188   1.085       .  S
C186        C189   1.443       .  S
C189        N191   1.157       .  T
C190        N192   1.157       .  T
C193        C198   1.418   1_545  A
C193        C446   1.408       .  A
C194        C195   1.400       .  A
C194        C445   1.408   1_554  A
C194        H199   1.083       .  S
C195        C448   1.409       .  A
C195        C202   1.444       .  S
C196        C197   1.402   1_545  A
C196        C447   1.409       .  A
C197        C198   1.404       .  A
C197        H200   1.085       .  S
C198        C201   1.443       .  S
C201        N203   1.158       .  T
C202        N204   1.157       .  T
C205        C206   1.402       .  A
C205        C210   1.409       .  A
C206        C207   1.404       .  A
C206        H211   1.085       .  S
C207        C208   1.419       .  A
C207        C214   1.442       .  S
C208        C209   1.410       .  A
C209        C210   1.402       .  A
C209        H212   1.083       .  S
C210        C213   1.444       .  S
C213        N467   1.157       .  T
C214        N216   1.157       .  T
N215        C465   1.157   1_554  T
C217        C218   1.405       .  A
C217        C222   1.417       .  A
C218        C219   1.400       .  A
C218        H223   1.084       .  S
C219        C220   1.409       .  A
C219        C226   1.444       .  S
C220        C221   1.402       .  A
C221        C222   1.404       .  A
C221        H224   1.085       .  S
C222        C225   1.444       .  S
C225        N227   1.158       .  T
C226        N228   1.157       .  T
C229        C230   1.407       .  A
C229        C234   1.415       .  A
C230        C231   1.402       .  A
C230        H235   1.084       .  S
C231        C232   1.412       .  A
C231        C238   1.444       .  S
C232        C233   1.403       .  A
C233        C234   1.402       .  A
C233        H236   1.085       .  S
C234        C237   1.443       .  S
C237        N239   1.157       .  T
C238        N240   1.157       .  T
C241        C242   1.405       .  A
C241        C246   1.415       .  A
C242        C243   1.398       .  A
C242        H247   1.084       .  S
C243        C244   1.413       .  A
C243        C250   1.444       .  S
C244        C245   1.405       .  A
C245        C246   1.403       .  A
C245        H248   1.085       .  S
C246        C249   1.443       .  S
C249        N251   1.157       .  T
C250        N252   1.157       .  T
N253        N254   1.320       .  A
N253        C257   1.346       .  A
N253       Cu261   2.072       .  S
N254        C255   1.342       .  A
N254       Cu260   2.067       .  S
C255        C256   1.386       .  A
C255        H258   1.082       .  S
C256        C257   1.389       .  A
C256        C493   1.488       .  S
C257        H259   1.081       .  S
Cu260       N263   2.068       .  S
Cu261       N271   2.072       .  S
Cu262       N264   2.085       .  S
Cu262       N270   2.086       .  S
N263        N264   1.321       .  A
N263        C267   1.345       .  A
N264        C265   1.346       .  A
C265        C266   1.389       .  A
C265        H268   1.082       .  S
C266        C267   1.386       .  A
C266        C469   1.489       .  S
C267        H269   1.081       .  S
N270        N271   1.322       .  A
N270        C274   1.347       .  A
N271        C272   1.344       .  A
C272        C273   1.385       .  A
C272        H275   1.082       .  S
C273        C274   1.390       .  A
C273        C481   1.490       .  S
C274        H276   1.080       .  S
N277        N278   1.322       .  A
N277        C281   1.346       .  A
N277       Cu285   2.078   1_565  S
N278        C279   1.343       .  A
N278       Cu284   2.072       .  S
C279        C280   1.385       .  A
C279        H282   1.081       .  S
C280        C281   1.386       .  A
C280        C496   1.485       .  S
C281        H283   1.082       .  S
Cu284       N287   2.072   1_565  S
Cu286       N288   2.081       .  S
Cu286       N294   2.081       .  S
N287        C291   1.346   1_545  A
N288        C289   1.346       .  A
C289        C290   1.385   1_556  A
C289        H292   1.082       .  S
C290        C448   1.481       .  S
C291        H293   1.082       .  S
N294        N295   1.323       .  A
N294        C298   1.346       .  A
N295        C296   1.346       .  A
C296        C297   1.384       .  A
C296        H299   1.082       .  S
C297        C298   1.385       .  A
C297        C457   1.483       .  S
C298        H300   1.082       .  S
N301        N302   1.322       .  A
N301        C305   1.349       .  A
N301       Cu309   2.097   1_655  S
N302        C303   1.343       .  A
N302       Cu308   2.075       .  S
C303        C304   1.388       .  A
C303        H306   1.081       .  S
C304        C305   1.394       .  A
C304        C460   1.499       .  S
C305        H307   1.080       .  S
Cu308       N311   2.075   1_655  S
Cu309       N319   2.097       .  S
Cu310       N312   2.072       .  S
Cu310       N318   2.072       .  S
N311        N312   1.319       .  A
N311        C315   1.345   1_455  A
N312        C313   1.344       .  A
C313        C314   1.390       .  A
C313        H316   1.081       .  S
C314        C315   1.391   1_455  A
C314        C421   1.495       .  S
C315        H317   1.080       .  S
N318        N319   1.323       .  A
N318        C322   1.344       .  A
N319        C320   1.350       .  A
C320        C321   1.389       .  A
C320        H323   1.082       .  S
C321        C322   1.382       .  A
C321        C436   1.486       .  S
C322        H324   1.082       .  S
N325        N326   1.322       .  A
N325        C329   1.347       .  A
N325       Cu333   2.080       .  S
N326        C327   1.345       .  A
N326       Cu332   2.076       .  S
C327        C328   1.386       .  A
C327        H330   1.082       .  S
C328        C329   1.386       .  A
C328        C412   1.486       .  S
C329        H331   1.082       .  S
Cu332       N335   2.076       .  S
Cu333       N343   2.081       .  S
Cu334       N336   2.084       .  S
Cu334       N342   2.085       .  S
N335        N336   1.323       .  A
N335        C339   1.345       .  A
N336        C337   1.348       .  A
C337        C338   1.384       .  A
C337        H340   1.082       .  S
C338        C339   1.383       .  A
C338        C472   1.480       .  S
C339        H341   1.082       .  S
N342        N343   1.322       .  A
N342        C346   1.347       .  A
N343        C344   1.346       .  A
C344        C345   1.387       .  A
C344        H347   1.081       .  S
C345        C346   1.388       .  A
C345        C433   1.491       .  S
C346        H348   1.082       .  S
N349        N350   1.321       .  A
N349        C353   1.345       .  A
N349       Cu357   2.073       .  S
N350        C351   1.346       .  A
N350       Cu356   2.081       .  S
C351        C352   1.389       .  A
C351        H354   1.082       .  S
C352        C353   1.387       .  A
C352        C409   1.491       .  S
C353        H355   1.081       .  S
Cu356       N359   2.081       .  S
Cu358       N360   2.080   1_566  S
Cu358       N366   2.080       .  S
N359        C363   1.345       .  A
N360        C361   1.346   1_544  A
C361        C362   1.390   1_565  A
C361        H364   1.080       .  S
C362        C445   1.494       .  S
C363        H365   1.082       .  S
N366        N367   1.322       .  A
N366        C370   1.346       .  A
N367        C368   1.345       .  A
C368        C369   1.383       .  A
C368        H371   1.082       .  S
C369        C370   1.385       .  A
C369        C400   1.481       .  S
C370        H372   1.082       .  S
N373        N374   1.322       .  A
N373        C377   1.348       .  A
N373       Cu381   2.085       .  S
N374        C375   1.343       .  A
N374       Cu380   2.073       .  S
C375        C376   1.385       .  A
C375        H378   1.082       .  S
C376        C377   1.390       .  A
C376        C397   1.491       .  S
C377        H379   1.081       .  S
Cu380       N383   2.072       .  S
Cu381       N391   2.085   1_455  S
Cu382       N384   2.075   1_655  S
Cu382       N390   2.075       .  S
N383        N384   1.320       .  A
N383        C387   1.345       .  A
N384        C385   1.345   1_455  A
C385        C386   1.389   1_655  A
C385        H388   1.081       .  S
C386        C387   1.389       .  A
C386        C424   1.493       .  S
C387        H389   1.080       .  S
N390        N391   1.323       .  A
N390        C394   1.344       .  A
N391        C392   1.347       .  A
C392        C393   1.387       .  A
C392        H395   1.082       .  S
C393        C394   1.383       .  A
C393        C484   1.484       .  S
C394        H396   1.082       .  S
C397        C398   1.408       .  A
C397        C402   1.416       .  A
C398        C399   1.400       .  A
C398        H403   1.084       .  S
C399        C400   1.409       .  A
C399        C406   1.444       .  S
C400        C401   1.403       .  A
C401        C402   1.403       .  A
C401        H404   1.085       .  S
C402        C405   1.443       .  S
C405        N407   1.157       .  T
C406        N408   1.157   1_556  T
C409        C410   1.406       .  A
C409        C414   1.417       .  A
C410        C411   1.401       .  A
C410        H415   1.084       .  S
C411        C412   1.412       .  A
C411        C418   1.444       .  S
C412        C413   1.404       .  A
C413        C414   1.403       .  A
C413        H416   1.085       .  S
C414        C417   1.443       .  S
C418        N420   1.157       .  T
C421        C422   1.407       .  A
C421        C426   1.417   1_455  A
C422        C423   1.402       .  A
C422        H427   1.083       .  S
C423        C424   1.415       .  A
C423        C430   1.444       .  S
C424        C425   1.405   1_455  A
C425        C426   1.402       .  A
C425        H428   1.084       .  S
C426        C429   1.443       .  S
C429        N431   1.157       .  T
C430        N432   1.157       .  T
C433        C434   1.405       .  A
C433        C438   1.416       .  A
C434        C435   1.402       .  A
C434        H439   1.084       .  S
C435        C436   1.413       .  A
C435        C442   1.444       .  S
C436        C437   1.403       .  A
C437        C438   1.404       .  A
C437        H440   1.085       .  S
C438        C441   1.443       .  S
C441        N443   1.157       .  T
C442        N444   1.157       .  T
C445        C450   1.418   1_545  A
C446        C447   1.400       .  A
C446        H451   1.083       .  S
C447        C454   1.444       .  S
C448        C449   1.402   1_544  A
C449        C450   1.404       .  A
C449        H452   1.085       .  S
C450        C453   1.443       .  S
C453        N455   1.158       .  T
C454        N456   1.157       .  T
C457        C458   1.402       .  A
C457        C462   1.409       .  A
C458        C459   1.404       .  A
C458        H463   1.085       .  S
C459        C460   1.419       .  A
C459        C466   1.442       .  S
C460        C461   1.410       .  A
C461        C462   1.402       .  A
C461        H464   1.083       .  S
C462        C465   1.444       .  S
C466        N468   1.157       .  T
C469        C470   1.405       .  A
C469        C474   1.417       .  A
C470        C471   1.400       .  A
C470        H475   1.084       .  S
C471        C472   1.409       .  A
C471        C478   1.444       .  S
C472        C473   1.402       .  A
C473        C474   1.404       .  A
C473        H476   1.085       .  S
C474        C477   1.444       .  S
C477        N479   1.158       .  T
C478        N480   1.157       .  T
C481        C482   1.407       .  A
C481        C486   1.415       .  A
C482        C483   1.402       .  A
C482        H487   1.084       .  S
C483        C484   1.412       .  A
C483        C490   1.444       .  S
C484        C485   1.403       .  A
C485        C486   1.402       .  A
C485        H488   1.085       .  S
C486        C489   1.443       .  S
C489        N491   1.157       .  T
C490        N492   1.157       .  T
C493        C494   1.405       .  A
C493        C498   1.415       .  A
C494        C495   1.398       .  A
C494        H499   1.084       .  S
C495        C496   1.413       .  A
C495        C502   1.444       .  S
C496        C497   1.405       .  A
C497        C498   1.403       .  A
C497        H500   1.085       .  S
C498        C501   1.443       .  S
C501        N503   1.157       .  T
C502        N504   1.157       .  T
