geometry optimzed in LAMMPS
_audit_creation_date              2020-11-30 
_audit_creation_method            'lammps2cif' 
_symmetry_space_group_name_H-M    'P1' 
_symmetry_Int_Tables_number       1 
_symmetry_cell_setting            triclinic 
loop_ 
_symmetry_equiv_pos_as_xyz 
  x,y,z 
_cell_length_a                    27.14185429878227 
_cell_length_b                    51.09987479921448 
_cell_length_c                    26.92947979976003 
_cell_angle_alpha                 91.33387165122915 
_cell_angle_beta                  89.44347687781935 
_cell_angle_gamma                 89.84845056536872 
loop_ 
_atom_site_label 
_atom_site_type_symbol 
_atom_site_fract_x 
_atom_site_fract_y 
_atom_site_fract_z 
_atom_site_charge 
O1          O  0.45660413  0.96088276  0.49927619    -0.72890
O2          O  0.45752937  0.03968889  0.00196857    -0.73870
O3          O  0.45662072  0.00009502  0.42622985    -0.62490
O4          O  0.45693028  0.00039101  0.07491307    -0.70900
O5          O  0.53878066  0.00003785  0.07420999    -0.70460
O6          O  0.53847306  0.99987987  0.42525524    -0.61710
O7          O  0.53934724  0.03931621  0.00122790    -0.74220
O8          O  0.53843130  0.96069101  0.49816304    -0.73000
Cu9        Cu  0.45393563  0.00025905  0.50061701     1.04560
Cu10       Cu  0.54173898  0.00000560  0.99967504     1.04330
C11         C  0.49750627  0.94841991  0.49841542     0.93310
C12         C  0.49859533  0.05188031  0.00195917     0.92440
C13         C  0.49747928  0.99995843  0.40233218     0.84590
C14         C  0.49779522  0.00012664  0.09796980     0.90860
O15         O  0.45559668  0.03896081  0.25203799    -0.72890
O16         O  0.45660539  0.96052649  0.24913905    -0.73870
O17         O  0.45633725  0.99986741  0.32499833    -0.62490
O18         O  0.45657175  0.99971213  0.17602468    -0.70900
O19         O  0.53842139  0.99989762  0.17545466    -0.70460
O20         O  0.53819131  0.99987729  0.32411818    -0.61710
O21         O  0.53843293  0.96046816  0.24817821    -0.74220
O22         O  0.53742739  0.03922505  0.25154546    -0.73000
Cu23       Cu  0.45342804  0.99974919  0.25054041     1.04560
Cu24       Cu  0.54099690  0.99986588  0.24977365     1.04330
C25         C  0.49626476  0.05145097  0.25239451     0.93310
C26         C  0.49752357  0.94813135  0.24839863     0.92440
C27         C  0.49731091  0.99989603  0.34796758     0.84590
C28         C  0.49758422  0.99989956  0.15233098     0.90860
N29         N  0.42364976  0.21485359  0.99250946    -0.27240
N30         N  0.40032251  0.19232450  0.99673468    -0.35100
C31         C  0.35155847  0.19674163  0.99766688     0.01100
C32         C  0.34345219  0.22332802  0.99334905     0.07130
C33         C  0.39009874  0.23424775  0.99071312    -0.05970
H34         H  0.32417377  0.18165210  0.00243112     0.07790
H35         H  0.39902546  0.25477560  0.98768462     0.08990
Cu36       Cu  0.43436117  0.15622221  0.00125041     0.44170
Cu37       Cu  0.49993735  0.21807206  0.99021006     0.41990
Cu38       Cu  0.56537600  0.15580853  0.00036786     0.43880
N39         N  0.47522871  0.12204864  0.00255421    -0.34620
N40         N  0.52389117  0.12183416  0.00208600    -0.28880
C41         C  0.53977693  0.09686978  0.00210868    -0.04980
C42         C  0.49901234  0.08065010  0.00261332     0.07240
C43         C  0.45870475  0.09726328  0.00289573     0.01030
H44         H  0.57810048  0.09098400  0.00141255     0.08680
H45         H  0.42023605  0.09177169  0.00290075     0.07760
N46         N  0.59943937  0.19199505  0.99705006    -0.36070
N47         N  0.57618415  0.21456437  0.99212468    -0.28250
C48         C  0.60967497  0.23394813  0.99090754    -0.03490
C49         C  0.65599231  0.22302364  0.99608606     0.05120
C50         C  0.64809963  0.19643119  0.99963454     0.03210
H51         H  0.60087745  0.25450918  0.98785117     0.08320
H52         H  0.67572103  0.18135485  0.00376690     0.07150
N53         N  0.57118491  0.21371072  0.24699284    -0.27240
N54         N  0.59414176  0.19137584  0.25470335    -0.35100
C55         C  0.64280486  0.19567364  0.25735659     0.01100
C56         C  0.65161875  0.22200945  0.24993783     0.07130
C57         C  0.60501642  0.23283568  0.24392085    -0.05970
H58         H  0.66928855  0.18058883  0.26536446     0.07790
H59         H  0.59623117  0.25314719  0.23766697     0.08990
Cu60       Cu  0.55966053  0.15556090  0.25935623     0.44170
Cu61       Cu  0.49472283  0.21690115  0.24354157     0.41990
Cu62       Cu  0.42824140  0.15529354  0.25818225     0.43880
N63         N  0.51887540  0.12153485  0.25737229    -0.34620
N64         N  0.47022046  0.12134532  0.25680320    -0.28880
C65         C  0.45461989  0.09638602  0.25477921    -0.04980
C66         C  0.49556590  0.08017808  0.25404423     0.07240
C67         C  0.53567692  0.09675689  0.25568561     0.01030
H68         H  0.41637050  0.09050314  0.25388598     0.08680
H69         H  0.57420060  0.09126319  0.25563598     0.07760
N70         N  0.39460527  0.19169699  0.25587746    -0.36070
N71         N  0.41825785  0.21392333  0.24858407    -0.28250
C72         C  0.38502965  0.23345495  0.24623855    -0.03490
C73         C  0.33850140  0.22299049  0.25285543     0.05120
C74         C  0.34594500  0.19655155  0.25910434     0.03210
H75         H  0.39404739  0.25375811  0.24024024     0.08320
H76         H  0.31795302  0.18179066  0.26416544     0.07150
N77         N  0.57450556  0.78564914  0.99868197    -0.27240
N78         N  0.59836146  0.80805961  0.99550510    -0.35100
C79         C  0.64702482  0.80320819  0.99425778     0.01100
C80         C  0.65443842  0.77641277  0.99667685     0.07130
C81         C  0.60740803  0.76596528  0.99995215    -0.05970
H82         H  0.67496906  0.81818646  0.99175759     0.07790
H83         H  0.59748051  0.74567354  0.00427340     0.08990
Cu84       Cu  0.56435322  0.84442409  0.99475951     0.44170
Cu85       Cu  0.49838498  0.78275033  0.00087076     0.41990
Cu86       Cu  0.43214855  0.84461863  0.00324076     0.43880
N87         N  0.52236679  0.87839526  0.99678561    -0.34620
N88         N  0.47373343  0.87844823  0.99979126    -0.28880
C89         C  0.45742843  0.90333711  0.00050262    -0.04980
C90         C  0.49781078  0.91970814  0.99795686     0.07240
C91         C  0.53838521  0.90326456  0.99568144     0.01030
H92         H  0.41906388  0.90906051  0.00300851     0.08680
H93         H  0.57671160  0.90893069  0.99352889     0.07760
N94         N  0.39831009  0.80837043  0.00438918    -0.36070
N95         N  0.42223835  0.78579042  0.00227815    -0.28250
C96         C  0.38933204  0.76614925  0.00163612    -0.03490
C97         C  0.34256389  0.77693305  0.00429454     0.05120
C98         C  0.34963036  0.80371646  0.00576551     0.03210
H99         H  0.39875698  0.74556063  0.99971464     0.08320
H100        H  0.32147281  0.81874980  0.00664062     0.07150
N101        N  0.57199622  0.78494972  0.24950972    -0.27240
N102        N  0.59563963  0.80744346  0.24604603    -0.35100
C103        C  0.64433939  0.80280466  0.24416082     0.01100
C104        C  0.65187107  0.77612872  0.24667655     0.07130
C105        C  0.60526394  0.76537995  0.25054165    -0.05970
H106        H  0.67223314  0.81783300  0.24203278     0.07790
H107        H  0.59619967  0.74485536  0.25331530     0.08990
Cu108      Cu  0.56194723  0.84377618  0.24555140     0.44170
Cu109      Cu  0.49565615  0.78203435  0.25138769     0.41990
Cu110      Cu  0.43041165  0.84450936  0.25228278     0.43880
N111        N  0.52103927  0.87798189  0.24722649    -0.34620
N112        N  0.47239945  0.87825386  0.24957766    -0.28880
C113        C  0.45657646  0.90321708  0.25009305    -0.04980
C114        C  0.49731282  0.91938791  0.24806125     0.07240
C115        C  0.53759218  0.90275815  0.24633238     0.01030
H116        H  0.41829083  0.90913407  0.25203848     0.08680
H117        H  0.57604448  0.90822081  0.24463311     0.07760
N118        N  0.39597107  0.80839201  0.25341506    -0.36070
N119        N  0.41937401  0.78564404  0.25207544    -0.28250
C120        C  0.38591583  0.76624677  0.25161989    -0.03490
C121        C  0.33933962  0.77735775  0.25355841     0.05120
C122        C  0.34716182  0.80408694  0.25437493     0.03210
H123        H  0.39482899  0.74558953  0.25034694     0.08320
H124        H  0.31943418  0.81933756  0.25457631     0.07150
N125        N  0.92460640  0.71477885  0.00179034    -0.27240
N126        N  0.90048671  0.69245509  0.00503725    -0.35100
C127        C  0.85189366  0.69744474  0.00628378     0.01100
C128        C  0.84476277  0.72424881  0.00375934     0.07130
C129        C  0.89190833  0.73456465  0.00047731    -0.05970
H130        H  0.82380215  0.68254437  0.00879033     0.07790
H131        H  0.90203380  0.75482374  0.99607754     0.08990
Cu132      Cu  0.93392159  0.65599559  0.00568914     0.44170
Cu133      Cu  0.00078877  0.71730090  0.99943165     0.41990
Cu134      Cu  0.06605061  0.65504921  0.99682803     0.43880
N135        N  0.97508068  0.62180575  0.00339822    -0.34620
N136        N  0.02370259  0.62146178  0.00026352    -0.28880
C137        C  0.03942577  0.59647434  0.99943861    -0.04980
C138        C  0.99866647  0.58035936  0.00203544     0.07240
C139        C  0.95847813  0.59704446  0.00446282     0.01030
H140        H  0.07765643  0.59050677  0.99684215     0.08680
H141        H  0.92003084  0.59162364  0.00672327     0.07760
N142        N  0.10047813  0.69116347  0.99575248    -0.36070
N143        N  0.07688863  0.71384580  0.99794063    -0.28250
C144        C  0.11008475  0.73334376  0.99869044    -0.03490
C145        C  0.15669579  0.72237465  0.99603615     0.05120
C146        C  0.14923810  0.69561907  0.99443222     0.03210
H147        H  0.10096011  0.75396860  0.00072871     0.08320
H148        H  0.17717920  0.68047214  0.99354898     0.07150
N149        N  0.91989775  0.71465729  0.25034748    -0.27240
N150        N  0.89661496  0.69205885  0.25387373    -0.35100
C151        C  0.84782999  0.69648953  0.25567293     0.01100
C152        C  0.83988864  0.72313312  0.25301495     0.07130
C153        C  0.88633197  0.73407400  0.24918002    -0.05970
H154        H  0.82016217  0.68134461  0.25781039     0.07790
H155        H  0.89508544  0.75463235  0.24631081     0.08990
Cu156      Cu  0.93100825  0.65587794  0.25449464     0.44170
Cu157      Cu  0.99617850  0.71798218  0.24851583     0.41990
Cu158      Cu  0.06254304  0.65586905  0.24781647     0.43880
N159        N  0.97271169  0.62190208  0.25289258    -0.34620
N160        N  0.02135272  0.62189237  0.25055525    -0.28880
C161        C  0.03770578  0.59701703  0.25004093    -0.04980
C162        C  0.99730339  0.58062568  0.25206211     0.07240
C163        C  0.95668760  0.59703559  0.25378365     0.01030
H164        H  0.07610492  0.59131683  0.24808336     0.08680
H165        H  0.91834669  0.59135459  0.25545065     0.07760
N166        N  0.09628526  0.69213373  0.24655544    -0.36070
N167        N  0.07252775  0.71477627  0.24781387    -0.28250
C168        C  0.10569784  0.73431794  0.24811475    -0.03490
C169        C  0.15243599  0.72339344  0.24614671     0.05120
C170        C  0.14501186  0.69663889  0.24550038     0.03210
H171        H  0.09648334  0.75493843  0.24926852     0.08320
H172        H  0.17296010  0.68150239  0.24531235     0.07150
N173        N  0.07542562  0.28572716  0.00703966    -0.27240
N174        N  0.09845032  0.30835968  0.00309069    -0.35100
C175        C  0.14728020  0.30411010  0.00202186     0.01100
C176        C  0.15572360  0.27752267  0.00594416     0.07130
C177        C  0.10921221  0.26644200  0.00852142    -0.05970
H178        H  0.17447031  0.31931009  0.99739141     0.07790
H179        H  0.10052778  0.24587007  0.01125523     0.08990
Cu180      Cu  0.06374840  0.34432866  0.99896021     0.44170
Cu181      Cu  0.99920146  0.28217379  0.00923057     0.41990
Cu182      Cu  0.93257642  0.34401965  0.99934532     0.43880
N183        N  0.02203010  0.37824170  0.99766583    -0.34620
N184        N  0.97336538  0.37817904  0.99795727    -0.28880
C185        C  0.95692965  0.40304292  0.99788920    -0.04980
C186        C  0.99733685  0.41949083  0.99752774     0.07240
C187        C  0.03800374  0.40312205  0.99738652     0.01030
H188        H  0.91848441  0.40869740  0.99841271     0.08680
H189        H  0.07635100  0.40884724  0.99748428     0.07760
N190        N  0.89924328  0.30767341  0.00209986    -0.36070
N191        N  0.92291110  0.28522210  0.00694345    -0.28250
C192        C  0.88979675  0.26564837  0.00772932    -0.03490
C193        C  0.84331722  0.27634179  0.00233208     0.05120
C194        C  0.85070400  0.30298467  0.99913071     0.03210
H195        H  0.89896525  0.24512577  0.01065112     0.08320
H196        H  0.82282088  0.31792409  0.99498164     0.07150
N197        N  0.07114685  0.28563377  0.25219143    -0.27240
N198        N  0.09516934  0.30770514  0.24455192    -0.35100
C199        C  0.14373281  0.30262936  0.24135921     0.01100
C200        C  0.15075497  0.27619670  0.24799706     0.07130
C201        C  0.10405812  0.26596072  0.25480005    -0.05970
H202        H  0.17194910  0.31724264  0.23603516     0.07790
H203        H  0.09471566  0.24572505  0.26107093     0.08990
Cu204      Cu  0.06216880  0.34419659  0.24182610     0.44170
Cu205      Cu  0.99463168  0.28321073  0.25737658     0.41990
Cu206      Cu  0.93056145  0.34499169  0.24191673     0.43880
N207        N  0.02123688  0.37843734  0.24324161    -0.34620
N208        N  0.97256860  0.37868338  0.24313145    -0.28880
C209        C  0.95665039  0.40362440  0.24480315    -0.04980
C210        C  0.99735272  0.41982745  0.24598190     0.07240
C211        C  0.03771912  0.40323938  0.24497204     0.01030
H212        H  0.91831596  0.40949145  0.24523052     0.08680
H213        H  0.07617212  0.40875035  0.24553033     0.07760
N214        N  0.89547300  0.30928590  0.24698645    -0.36070
N215        N  0.91822620  0.28685881  0.25444430    -0.28250
C216        C  0.88423394  0.26783369  0.25765668    -0.03490
C217        C  0.83770107  0.27878201  0.25197416     0.05120
C218        C  0.84671743  0.30512114  0.24466867     0.03210
H219        H  0.89289170  0.24748908  0.26372260     0.08320
H220        H  0.82029499  0.32027812  0.23690563     0.07150
O221        O  0.03898547  0.53905809  0.00070998    -0.72890
O222        O  0.03824851  0.46050645  0.99812051    -0.73870
O223        O  0.03852794  0.49968704  0.42503132    -0.62490
O224        O  0.03855760  0.49995686  0.07388420    -0.70900
O225        O  0.95670465  0.50018104  0.07469690    -0.70460
O226        O  0.95667717  0.50006057  0.42590945    -0.61710
O227        O  0.95642450  0.46073069  0.99882250    -0.74220
O228        O  0.95715887  0.53944353  0.00183748    -0.73000
Cu229      Cu  0.04143152  0.49977762  0.99941583     1.04560
Cu230      Cu  0.95386745  0.50010795  0.00034503     1.04330
C231        C  0.99822476  0.55161634  0.00156956     0.93310
C232        C  0.99729341  0.44824725  0.99813146     0.92440
C233        C  0.99758328  0.49994221  0.40206164     0.84590
C234        C  0.99762472  0.50009360  0.09770099     0.90860
O235        O  0.03836710  0.53947464  0.25087920    -0.72890
O236        O  0.03846496  0.46082989  0.24790524    -0.73870
O237        O  0.03850797  0.50005115  0.17508325    -0.62490
O238        O  0.03845660  0.50018158  0.32387529    -0.70900
O239        O  0.95660469  0.50023479  0.32470646    -0.70460
O240        O  0.95665335  0.50025835  0.17586676    -0.61710
O241        O  0.95663133  0.46100450  0.24854272    -0.74220
O242        O  0.95653894  0.53955768  0.25191214    -0.73000
Cu243      Cu  0.04131609  0.50013941  0.24944059     1.04560
Cu244      Cu  0.95374616  0.50027373  0.25031009     1.04330
C245        C  0.99742225  0.55188193  0.25167360     0.93310
C246        C  0.99751713  0.44855783  0.24761559     0.92440
C247        C  0.99759374  0.50013981  0.15206593     0.84590
C248        C  0.99754195  0.50012776  0.34769975     0.90860
C249        C  0.20020821  0.73726471  0.24692568    -0.00110
C250        C  0.20666849  0.75817452  0.28090063    -0.11980
C251        C  0.25184392  0.77125398  0.28418495     0.02130
C252        C  0.29141101  0.76363477  0.25254404    -0.00190
C253        C  0.28491980  0.74274892  0.21852064    -0.11920
C254        C  0.23975477  0.72966808  0.21524259     0.01900
H255        H  0.17669455  0.76388887  0.30582108     0.15000
H256        H  0.31489901  0.73702004  0.19361813     0.15000
C257        C  0.23425981  0.70942667  0.17739723     0.36650
C258        C  0.25735598  0.79147409  0.32206274     0.36560
N259        N  0.22975874  0.69329514  0.14691058    -0.43690
N260        N  0.26186111  0.80758382  0.35258954    -0.43690
C261        C  0.79181884  0.73676966  0.25237085    -0.00110
C262        C  0.78329014  0.75527625  0.21573724    -0.11980
C263        C  0.73763327  0.76792515  0.21264029     0.02130
C264        C  0.69977419  0.76233011  0.24711487    -0.00190
C265        C  0.70827374  0.74380114  0.28371154    -0.11920
C266        C  0.75393500  0.73114870  0.28680639     0.02020
H267        H  0.81199739  0.75940524  0.18874749     0.15000
H268        H  0.67957675  0.73969270  0.31072457     0.15000
C269        C  0.76179156  0.71348275  0.32708761     0.36650
C270        C  0.72977388  0.78560390  0.17237444     0.36560
N271        N  0.76831880  0.69939453  0.35941859    -0.43690
N272        N  0.72321245  0.79970505  0.14007050    -0.43690
C273        C  0.20434503  0.73625562  0.99730167    -0.00110
C274        C  0.21130707  0.75620244  0.03320006    -0.11980
C275        C  0.25630129  0.76941346  0.03663149     0.02130
C276        C  0.29507696  0.76289651  0.00324436    -0.00190
C277        C  0.28810393  0.74292427  0.46740112    -0.11920
C278        C  0.24309274  0.72972405  0.46395753     0.02020
H279        H  0.18186117  0.76107142  0.05935550     0.15000
H280        H  0.31754384  0.73806493  0.44123282     0.15000
C281        C  0.23681434  0.71055237  0.42429181     0.36650
C282        C  0.26255273  0.78860853  0.07626570     0.36560
N283        N  0.23164740  0.69530767  0.39232225    -0.43690
N284        N  0.26770487  0.80387668  0.10819830    -0.43690
C285        C  0.70271841  0.76259133  0.99797483    -0.00110
C286        C  0.74315278  0.77578375  0.01890863    -0.11980
C287        C  0.78956324  0.76389290  0.02145338     0.02130
C288        C  0.79658129  0.73814562  0.00225339    -0.00190
C289        C  0.75615081  0.72501487  0.48123955    -0.11920
C290        C  0.70974946  0.73689800  0.47870976     0.02020
H291        H  0.73839593  0.79541135  0.03436176     0.15000
H292        H  0.76090729  0.70539334  0.46575618     0.15000
C293        C  0.67105814  0.72241989  0.45413085     0.36650
C294        C  0.82829710  0.77835702  0.04598839     0.36560
N295        N  0.64040538  0.71055630  0.43435359    -0.43690
N296        N  0.85900777  0.79019559  0.06572596    -0.43690
C297        C  0.78947981  0.26479119  0.25171189    -0.00110
C298        C  0.78888972  0.23814428  0.23768453    -0.11980
C299        C  0.74503155  0.22376581  0.23677852     0.02130
C300        C  0.69978513  0.23603821  0.25017066    -0.00190
C301        C  0.70035481  0.26268792  0.26416745    -0.11920
C302        C  0.74424211  0.27705605  0.26516638     0.02020
H303        H  0.82288189  0.22842763  0.22643372     0.15000
H304        H  0.66634149  0.27239114  0.27540225     0.15000
C305        C  0.74113049  0.30404168  0.28193551     0.36650
C306        C  0.74822410  0.19672600  0.22034654     0.36560
N307        N  0.73792572  0.32564732  0.29550157    -0.43690
N308        N  0.75151164  0.17506200  0.20715969    -0.43690
C309        C  0.29063269  0.23673270  0.25117255    -0.00110
C310        C  0.25838616  0.23549872  0.29208372    -0.11980
C311        C  0.21267027  0.24830467  0.29171595     0.02130
C312        C  0.19845000  0.26229197  0.24962713    -0.00190
C313        C  0.23068707  0.26351525  0.20872028    -0.11920
C314        C  0.27639312  0.25071934  0.20908844     0.02020
H315        H  0.26932499  0.22490579  0.32466146     0.15000
H316        H  0.21978234  0.27413789  0.17616322     0.15000
C317        C  0.30717750  0.25108833  0.16512855     0.36650
C318        C  0.18189716  0.24800708  0.33569368     0.36560
N319        N  0.33226071  0.25099417  0.13015570    -0.43690
N320        N  0.15677296  0.24818130  0.37064215    -0.43690
C321        C  0.70382411  0.23674010  0.99843726    -0.00110
C322        C  0.71596050  0.25457997  0.46163153    -0.11980
C323        C  0.76161215  0.26730125  0.46180226     0.02130
C324        C  0.79573371  0.26242066  0.99966896    -0.00190
C325        C  0.78374439  0.24444377  0.03638946    -0.11920
C326        C  0.73807475  0.23175023  0.03622730     0.02020
H327        H  0.69009868  0.25819809  0.43209062     0.15000
H328        H  0.80961139  0.24080861  0.06591825     0.15000
C329        C  0.72608086  0.21468517  0.07650860     0.36650
C330        C  0.77372543  0.28429071  0.42142452     0.36560
N331        N  0.71567868  0.20101304  0.10856874    -0.43690
N332        N  0.78431183  0.29787731  0.38928565    -0.43690
C333        C  0.29537565  0.23721095  0.99494053    -0.00110
C334        C  0.29202124  0.26155269  0.01996642    -0.11980
C335        C  0.24685727  0.27465526  0.02533766     0.02130
C336        C  0.20392695  0.26375233  0.00403886    -0.00190
C337        C  0.20744667  0.23940520  0.47894650    -0.11920
C338        C  0.25260035  0.22629971  0.47359250     0.02020
H339        H  0.32458890  0.27007847  0.03669933     0.15000
H340        H  0.17487505  0.23082422  0.46235467     0.15000
C341        C  0.25410903  0.20254540  0.44350045     0.36650
C342        C  0.24532753  0.29837159  0.05552932     0.36560
N343        N  0.25524788  0.18360325  0.41909892    -0.43690
N344        N  0.24418117  0.31727854  0.08002948    -0.43690
O345        O  0.45685291  0.96093335  0.99929280    -0.72890
O346        O  0.45731837  0.03963257  0.50196479    -0.73870
O347        O  0.45683435  0.00014213  0.92625483    -0.62490
O348        O  0.45666427  0.00033837  0.57491881    -0.70900
O349        O  0.53851505  0.99997292  0.57420531    -0.70460
O350        O  0.53868615  0.99994159  0.92523127    -0.61710
O351        O  0.53913907  0.03922530  0.50124025    -0.74220
O352        O  0.53867692  0.96073693  0.99815680    -0.73000
Cu353      Cu  0.45417941  0.00031179  0.00062801     1.04560
Cu354      Cu  0.54149860  0.99993795  0.49968601     1.04330
C355        C  0.49774742  0.94846398  0.99842303     0.93310
C356        C  0.49840787  0.05180224  0.50196358     0.92440
C357        C  0.49767643  0.00000454  0.90233253     0.84590
C358        C  0.49753418  0.00007609  0.59797065     0.90860
O359        O  0.45555517  0.03896161  0.75208633    -0.72890
O360        O  0.45656316  0.96052476  0.74921452    -0.73870
O361        O  0.45644028  0.99988090  0.82505758    -0.62490
O362        O  0.45638250  0.99969681  0.67608039    -0.70900
O363        O  0.53823238  0.99988096  0.67540344    -0.70460
O364        O  0.53829417  0.99989127  0.82405992    -0.61710
O365        O  0.53839041  0.96046843  0.74813481    -0.74220
O366        O  0.53738624  0.03922305  0.75147254    -0.73000
Cu367      Cu  0.45338427  0.99974858  0.75060720     1.04560
Cu368      Cu  0.54095317  0.99986481  0.74971025     1.04330
C369        C  0.49622547  0.05145044  0.75238826     0.93310
C370        C  0.49748316  0.94813061  0.74840809     0.92440
C371        C  0.49744788  0.99991973  0.84796799     0.84590
C372        C  0.49736495  0.99987270  0.65233285     0.90860
N373        N  0.42378486  0.21476690  0.49257075    -0.27240
N374        N  0.40041544  0.19225190  0.49678612    -0.35100
C375        C  0.35165740  0.19669004  0.49771316     0.01100
C376        C  0.34358930  0.22328136  0.49340096     0.07130
C377        C  0.39026317  0.23417890  0.49077910    -0.05970
H378        H  0.32424972  0.18161061  0.50245990     0.07790
H379        H  0.39922483  0.25470216  0.48774747     0.08990
Cu380      Cu  0.43445861  0.15615762  0.50127259     0.44170
Cu381      Cu  0.50010396  0.21788461  0.49024129     0.41990
Cu382      Cu  0.56561446  0.15561880  0.50027465     0.43880
N383        N  0.47527580  0.12197669  0.50255156    -0.34620
N384        N  0.52394050  0.12171324  0.50204320    -0.28880
C385        C  0.53973062  0.09673473  0.50206801    -0.04980
C386        C  0.49890547  0.08056240  0.50261331     0.07240
C387        C  0.45865930  0.09721090  0.50291878     0.01030
H388        H  0.57803222  0.09080724  0.50134250     0.08680
H389        H  0.42017053  0.09175866  0.50295676     0.07760
N390        N  0.59966575  0.19180926  0.49696595    -0.36070
N391        N  0.57636817  0.21437033  0.49208273    -0.28250
C392        C  0.60982362  0.23377009  0.49088218    -0.03490
C393        C  0.65616293  0.22287057  0.49602952     0.05120
C394        C  0.64832346  0.19627016  0.49954567     0.03210
H395        H  0.60098520  0.25432855  0.48787247     0.08320
H396        H  0.67597652  0.18120855  0.50366850     0.07150
N397        N  0.57118520  0.21370566  0.74699193    -0.27240
N398        N  0.59414048  0.19137116  0.75471107    -0.35100
C399        C  0.64280382  0.19566908  0.75736588     0.01100
C400        C  0.65161940  0.22200436  0.74994013     0.07130
C401        C  0.60501762  0.23283002  0.74391614    -0.05970
H402        H  0.66928615  0.18058499  0.76538181     0.07790
H403        H  0.59623312  0.25314106  0.73765656     0.08990
Cu404      Cu  0.55965585  0.15555631  0.75937988     0.44170
Cu405      Cu  0.49472319  0.21689885  0.74353897     0.41990
Cu406      Cu  0.42823691  0.15529824  0.75823327     0.43880
N407        N  0.51885946  0.12153234  0.75740775    -0.34620
N408        N  0.47020411  0.12134707  0.75685468    -0.28880
C409        C  0.45459424  0.09638948  0.75482259    -0.04980
C410        C  0.49553463  0.08017768  0.75405992     0.07240
C411        C  0.53565198  0.09675270  0.75569975     0.01030
H412        H  0.41634256  0.09051057  0.75393381     0.08680
H413        H  0.57417400  0.09125517  0.75563047     0.07760
N414        N  0.39460420  0.19170045  0.75589775    -0.36070
N415        N  0.41825756  0.21392460  0.74858541    -0.28250
C416        C  0.38502977  0.23345581  0.74622679    -0.03490
C417        C  0.33850131  0.22299304  0.75285429     0.05120
C418        C  0.34594445  0.19655580  0.75912306     0.03210
H419        H  0.39404796  0.25375759  0.74021427     0.08320
H420        H  0.31795253  0.18179634  0.76419859     0.07150
N421        N  0.57447977  0.78567280  0.49869538    -0.27240
N422        N  0.59832504  0.80808667  0.49552452    -0.35100
C423        C  0.64699148  0.80324409  0.49428253     0.01100
C424        C  0.65441827  0.77645006  0.49669768     0.07130
C425        C  0.60739333  0.76599507  0.49996864    -0.05970
H426        H  0.67492744  0.81822686  0.49178356     0.07790
H427        H  0.59747595  0.74570173  0.50428509     0.08990
Cu428      Cu  0.56429459  0.84443923  0.49477182     0.44170
Cu429      Cu  0.49835696  0.78275524  0.50086373     0.41990
Cu430      Cu  0.43208317  0.84458514  0.50324044     0.43880
N431        N  0.52224173  0.87838025  0.49678507    -0.34620
N432        N  0.47360926  0.87841144  0.49978408    -0.28880
C433        C  0.45725385  0.90328838  0.50048812    -0.04980
C434        C  0.49760613  0.91967324  0.49794479     0.07240
C435        C  0.53821364  0.90325497  0.49567829     0.01030
H436        H  0.41887882  0.90899200  0.50299079     0.08680
H437        H  0.57652965  0.90894154  0.49353257     0.07760
N438        N  0.39827046  0.80835125  0.50438975    -0.36070
N439        N  0.42220333  0.78577385  0.50227565    -0.28250
C440        C  0.38929513  0.76613386  0.50163870    -0.03490
C441        C  0.34252849  0.77692169  0.50430487     0.05120
C442        C  0.34959394  0.80370221  0.50577092     0.03210
H443        H  0.39871621  0.74554486  0.49971507     0.08320
H444        H  0.32144003  0.81873759  0.50664513     0.07150
N445        N  0.57199543  0.78495316  0.74950791    -0.27240
N446        N  0.59563721  0.80744675  0.74603005    -0.35100
C447        C  0.64433746  0.80280820  0.74414824     0.01100
C448        C  0.65187086  0.77613271  0.74667950     0.07130
C449        C  0.60526414  0.76538423  0.75055114    -0.05970
H450        H  0.67223035  0.81783646  0.74200909     0.07790
H451        H  0.59620056  0.74486003  0.75333468     0.08990
Cu452      Cu  0.56194098  0.84377936  0.74550547     0.44170
Cu453      Cu  0.49565594  0.78203419  0.75138686     0.41990
Cu454      Cu  0.43040580  0.84450389  0.75225005     0.43880
N455        N  0.52102139  0.87798266  0.74717676    -0.34620
N456        N  0.47238195  0.87825046  0.74953883    -0.28880
C457        C  0.45655012  0.90321222  0.75007544    -0.04980
C458        C  0.49728030  0.91938701  0.74804703     0.07240
C459        C  0.53756521  0.90276087  0.74629367     0.01030
H460        H  0.41826295  0.90912535  0.75203708     0.08680
H461        H  0.57601545  0.90822755  0.74459436     0.07760
N462        N  0.39596893  0.80838762  0.75340291    -0.36070
N463        N  0.41937330  0.78564017  0.75207475    -0.28250
C464        C  0.38591595  0.76624252  0.75162883    -0.03490
C465        C  0.33933944  0.77735343  0.75356194     0.05120
C466        C  0.34716018  0.80408241  0.75436519     0.03210
H467        H  0.39482968  0.74558532  0.75036446     0.08320
H468        H  0.31943200  0.81933264  0.75455768     0.07150
N469        N  0.92457722  0.71480469  0.50178560    -0.27240
N470        N  0.90045151  0.69248218  0.50502102    -0.35100
C471        C  0.85186018  0.69747732  0.50626573     0.01100
C472        C  0.84473904  0.72428313  0.50375162     0.07130
C473        C  0.89188759  0.73459426  0.50047759    -0.05970
H474        H  0.82376298  0.68257960  0.50876456     0.07790
H475        H  0.90202189  0.75485267  0.49608625     0.08990
Cu476      Cu  0.93387900  0.65601703  0.50566480     0.44170
Cu477      Cu  0.00075389  0.71732369  0.49943739     0.41990
Cu478      Cu  0.06600698  0.65506990  0.49682822     0.43880
N479        N  0.97503933  0.62182347  0.50338232    -0.34620
N480        N  0.02366185  0.62148105  0.50025653    -0.28880
C481        C  0.03938926  0.59649422  0.49943744    -0.04980
C482        C  0.99863318  0.58037631  0.50202927     0.07240
C483        C  0.95844131  0.59706059  0.50444732     0.01030
H484        H  0.07762155  0.59052882  0.49684926     0.08680
H485        H  0.91999476  0.59163786  0.50670228     0.07760
N486        N  0.10043426  0.69118374  0.49575949    -0.36070
N487        N  0.07684660  0.71386647  0.49794942    -0.28250
C488        C  0.11004172  0.73336423  0.49869827    -0.03490
C489        C  0.15665015  0.72239402  0.49604112     0.05120
C490        C  0.14919350  0.69563875  0.49443773     0.03210
H491        H  0.10091769  0.75398919  0.50073593     0.08320
H492        H  0.17713441  0.68049173  0.49355192     0.07150
N493        N  0.91989602  0.71465713  0.75034386    -0.27240
N494        N  0.89661347  0.69205857  0.75386917    -0.35100
C495        C  0.84782836  0.69648908  0.75566750     0.01100
C496        C  0.83988661  0.72313271  0.75301011     0.07130
C497        C  0.88632999  0.73407373  0.74917632    -0.05970
H498        H  0.82016076  0.68134404  0.75780475     0.07790
H499        H  0.89508331  0.75463216  0.74630837     0.08990
Cu500      Cu  0.93100787  0.65587790  0.75449278     0.44170
Cu501      Cu  0.99617682  0.71798224  0.74851441     0.41990
Cu502      Cu  0.06254224  0.65586889  0.74781866     0.43880
N503        N  0.97271160  0.62190208  0.75289843    -0.34620
N504        N  0.02135267  0.62189237  0.75056248    -0.28880
C505        C  0.03770599  0.59701712  0.75005245    -0.04980
C506        C  0.99730368  0.58062581  0.75207516     0.07240
C507        C  0.95668771  0.59703564  0.75379294     0.01030
H508        H  0.07610516  0.59131695  0.74809540     0.08680
H509        H  0.91834677  0.59135458  0.75545830     0.07760
N510        N  0.09628339  0.69213355  0.74655617    -0.36070
N511        N  0.07252599  0.71477614  0.74781358    -0.28250
C512        C  0.10569625  0.73431771  0.74811433    -0.03490
C513        C  0.15243419  0.72339300  0.74614728     0.05120
C514        C  0.14500991  0.69663854  0.74550175     0.03210
H515        H  0.09648200  0.75493824  0.74926742     0.08320
H516        H  0.17295798  0.68150195  0.74531489     0.07150
N517        N  0.07552441  0.28571574  0.50700992    -0.27240
N518        N  0.09855011  0.30835021  0.50309056    -0.35100
C519        C  0.14738400  0.30410005  0.50202741     0.01100
C520        C  0.15583722  0.27750964  0.50591939     0.07130
C521        C  0.10931779  0.26642985  0.50847553    -0.05970
H522        H  0.17457278  0.31930259  0.49741903     0.07790
H523        H  0.10063392  0.24585675  0.51118595     0.08990
Cu524      Cu  0.06382346  0.34432445  0.49897954     0.44170
Cu525      Cu  0.99927398  0.28217368  0.50918878     0.41990
Cu526      Cu  0.93261979  0.34402062  0.49931340     0.43880
N527        N  0.02208704  0.37824264  0.49767521    -0.34620
N528        N  0.97342113  0.37817849  0.49794875    -0.28880
C529        C  0.95698056  0.40304201  0.49787797    -0.04980
C530        C  0.99738203  0.41949420  0.49753145     0.07240
C531        C  0.03805304  0.40312599  0.49740269     0.01030
H532        H  0.91853384  0.40869362  0.49838726     0.08680
H533        H  0.07639851  0.40885426  0.49751266     0.07760
N534        N  0.89928417  0.30767307  0.50207833    -0.36070
N535        N  0.92295969  0.28522361  0.50692503    -0.28250
C536        C  0.88984275  0.26565033  0.50774046    -0.03490
C537        C  0.84335460  0.27633972  0.50235990     0.05120
C538        C  0.85074079  0.30298234  0.49913292     0.03210
H539        H  0.89901382  0.24512861  0.51067122     0.08320
H540        H  0.82285445  0.31792034  0.49498572     0.07150
N541        N  0.07114550  0.28563426  0.75218911    -0.27240
N542        N  0.09516794  0.30770572  0.74455041    -0.35100
C543        C  0.14373128  0.30262994  0.74135581     0.01100
C544        C  0.15075343  0.27619711  0.74799103     0.07130
C545        C  0.10405676  0.26596108  0.75479512    -0.05970
H546        H  0.17194749  0.31724332  0.73603228     0.07790
H547        H  0.09471445  0.24572532  0.76106532     0.08990
Cu548      Cu  0.06216741  0.34419700  0.74182563     0.44170
Cu549      Cu  0.99463035  0.28321139  0.75737599     0.41990
Cu550      Cu  0.93055906  0.34499186  0.74191555     0.43880
N551        N  0.02123533  0.37843748  0.74323524    -0.34620
N552        N  0.97256703  0.37868355  0.74312474    -0.28880
C553        C  0.95664915  0.40362466  0.74479264    -0.04980
C554        C  0.99735166  0.41982764  0.74596907     0.07240
C555        C  0.03771785  0.40323949  0.74496202     0.01030
H556        H  0.91831478  0.40949183  0.74522024     0.08680
H557        H  0.07617089  0.40875036  0.74552102     0.07760
N558        N  0.89547046  0.30928589  0.74698706    -0.36070
N559        N  0.91822461  0.28685906  0.75444483    -0.28250
C560        C  0.88423320  0.26783359  0.75765795    -0.03490
C561        C  0.83769955  0.27878117  0.75197585     0.05120
C562        C  0.84671486  0.30512049  0.74467007     0.03210
H563        H  0.89289228  0.24748918  0.76372423     0.08320
H564        H  0.82029162  0.32027715  0.73690745     0.07150
O565        O  0.03896666  0.53907709  0.50070945    -0.72890
O566        O  0.03827367  0.46051963  0.49812334    -0.73870
O567        O  0.03852631  0.49967133  0.92503067    -0.62490
O568        O  0.03855898  0.49997398  0.57388532    -0.70900
O569        O  0.95670611  0.50018816  0.57469678    -0.70460
O570        O  0.95667552  0.50005481  0.92590908    -0.61710
O571        O  0.95645058  0.46073291  0.49882355    -0.74220
O572        O  0.95714062  0.53945295  0.50183569    -0.73000
Cu573      Cu  0.04143347  0.49979456  0.49941688     1.04560
Cu574      Cu  0.95387020  0.50011374  0.50034498     1.04330
C575        C  0.99820110  0.55163144  0.50156715     0.93310
C576        C  0.99732535  0.44825362  0.49813406     0.92440
C577        C  0.99758183  0.49993209  0.90206119     0.84590
C578        C  0.99762585  0.50010505  0.59770149     0.90860
O579        O  0.03836730  0.53947475  0.75089004    -0.72890
O580        O  0.03846440  0.46082998  0.74789501    -0.73870
O581        O  0.03850824  0.50005758  0.67508389    -0.62490
O582        O  0.03845595  0.50017555  0.82387542    -0.70900
O583        O  0.95660404  0.50022985  0.82470597    -0.70460
O584        O  0.95665362  0.50026404  0.67586671    -0.61710
O585        O  0.95663077  0.46100481  0.74853334    -0.74220
O586        O  0.95653911  0.53955790  0.75192122    -0.73000
Cu587      Cu  0.04131592  0.50013953  0.74944093     1.04560
Cu588      Cu  0.95374599  0.50027404  0.75030987     1.04330
C589        C  0.99742250  0.55188208  0.75168525     0.93310
C590        C  0.99751643  0.44855802  0.74760411     0.92440
C591        C  0.99759422  0.50014794  0.65206630     0.84590
C592        C  0.99754106  0.50012051  0.84769947     0.90860
C593        C  0.20020661  0.73726373  0.74692673    -0.00110
C594        C  0.20666673  0.75817414  0.78090042    -0.11980
C595        C  0.25184306  0.77125251  0.78418588     0.02130
C596        C  0.29141111  0.76363102  0.75254827    -0.00190
C597        C  0.28492000  0.74274492  0.71852586    -0.11920
C598        C  0.23975393  0.72966555  0.71524590     0.01900
H599        H  0.17669193  0.76388989  0.80581868     0.15000
H600        H  0.31489998  0.73701495  0.69362514     0.15000
C601        C  0.23425893  0.70942423  0.67740047     0.36650
C602        C  0.25735476  0.79147433  0.82206055     0.36560
N603        N  0.22975823  0.69329285  0.64691349    -0.43690
N604        N  0.26185965  0.80758553  0.85258461    -0.43690
C605        C  0.79181675  0.73676954  0.75236733    -0.00110
C606        C  0.78328856  0.75527727  0.71573573    -0.11980
C607        C  0.73763272  0.76792750  0.71264103     0.02130
C608        C  0.69977413  0.76233337  0.74711692    -0.00190
C609        C  0.70827286  0.74380266  0.78371095    -0.11920
C610        C  0.75393288  0.73114839  0.78680278     0.02020
H611        H  0.81199545  0.75940611  0.68874550     0.15000
H612        H  0.67957611  0.73969399  0.81072408     0.15000
C613        C  0.76178828  0.71348022  0.82708078     0.36650
C614        C  0.72977354  0.78560617  0.67237514     0.36560
N615        N  0.76831485  0.69939013  0.85940896    -0.43690
N616        N  0.72321189  0.79970729  0.64007123    -0.43690
C617        C  0.20429721  0.73627304  0.49730172    -0.00110
C618        C  0.21126122  0.75622156  0.53319592    -0.11980
C619        C  0.25626106  0.76942507  0.53663117     0.02130
C620        C  0.29503856  0.76289532  0.50325453    -0.00190
C621        C  0.28814819  0.74292208  0.96739292    -0.11920
C622        C  0.24314245  0.72971290  0.96395475     0.02020
H623        H  0.18181349  0.76109689  0.55934527     0.15000
H624        H  0.31758754  0.73806740  0.94122127     0.15000
C625        C  0.23686758  0.71053972  0.92429017     0.36650
C626        C  0.26251345  0.78862694  0.57625471     0.36560
N627        N  0.23169865  0.69529385  0.89232275    -0.43690
N628        N  0.26766590  0.80390161  0.60817632    -0.43690
C629        C  0.70270262  0.76263326  0.49797982    -0.00110
C630        C  0.74314036  0.77582559  0.51890732    -0.11980
C631        C  0.78955091  0.76393353  0.52144539     0.02130
C632        C  0.79656324  0.73818533  0.50224538    -0.00190
C633        C  0.75617067  0.72497214  0.98124917    -0.11920
C634        C  0.70976719  0.73685403  0.97871411     0.02020
H635        H  0.73838558  0.79545311  0.53436171     0.15000
H636        H  0.76093085  0.70534985  0.96577030     0.15000
C637        C  0.67107699  0.72237255  0.95414026     0.36650
C638        C  0.82828990  0.77839732  0.54597310     0.36560
N639        N  0.64042756  0.71050480  0.93436648    -0.43690
N640        N  0.85900437  0.79023609  0.56570430    -0.43690
C641        C  0.78947882  0.26478935  0.75171441    -0.00110
C642        C  0.78889141  0.23814130  0.73769530    -0.11980
C643        C  0.74503500  0.22376117  0.73679418     0.02130
C644        C  0.69978580  0.23603391  0.75017518    -0.00190
C645        C  0.70035282  0.26268488  0.76416393    -0.11920
C646        C  0.74423948  0.27705381  0.76516444     0.02020
H647        H  0.82288495  0.22842429  0.72645031     0.15000
H648        H  0.66633808  0.27238828  0.77539344     0.15000
C649        C  0.74112612  0.30403925  0.78193456     0.36650
C650        C  0.74823386  0.19671823  0.72038379     0.36560
N651        N  0.73792090  0.32564438  0.79550369    -0.43690
N652        N  0.75152733  0.17505177  0.70721407    -0.43690
C653        C  0.29063239  0.23673490  0.75116978    -0.00110
C654        C  0.25838474  0.23550045  0.79207987    -0.11980
C655        C  0.21266842  0.24830567  0.79171049     0.02130
C656        C  0.19844856  0.26229260  0.74962124    -0.00190
C657        C  0.23068637  0.26351605  0.70871499    -0.11920
C658        C  0.27639302  0.25072079  0.70908490     0.02020
H659        H  0.26932308  0.22490784  0.82465815     0.15000
H660        H  0.21978199  0.27413833  0.67615741     0.15000
C661        C  0.30717895  0.25108925  0.66512650     0.36650
C662        C  0.18189407  0.24800788  0.83568704     0.36560
N663        N  0.33226611  0.25099381  0.63015665    -0.43690
N664        N  0.15676782  0.24818223  0.87063389    -0.43690
C665        C  0.70395294  0.23662951  0.49841371    -0.00110
C666        C  0.71586563  0.25468143  0.96164922    -0.11980
C667        C  0.76156884  0.26734910  0.96177923     0.02130
C668        C  0.79577352  0.26240780  0.49971509    -0.00190
C669        C  0.78380161  0.24443430  0.53645098    -0.11920
C670        C  0.73817252  0.23169632  0.53625793     0.02020
H671        H  0.68999335  0.25833009  0.93213243     0.15000
H672        H  0.80965287  0.24083227  0.56600928     0.15000
C673        C  0.72617320  0.21464940  0.57656452     0.36650
C674        C  0.77373744  0.28431614  0.92138235     0.36560
N675        N  0.71575733  0.20099506  0.60864763    -0.43690
N676        N  0.78438651  0.29788205  0.88923174    -0.43690
C677        C  0.29551601  0.23718120  0.49495209    -0.00110
C678        C  0.29215882  0.26152915  0.51995702    -0.11980
C679        C  0.24699196  0.27463745  0.52531205     0.02130
C680        C  0.20405518  0.26373733  0.50401330    -0.00190
C681        C  0.20731039  0.23942272  0.97896561    -0.11920
C682        C  0.25246263  0.22632314  0.97359318     0.02020
H683        H  0.32472574  0.27005440  0.53669224     0.15000
H684        H  0.17473567  0.23084141  0.96238001     0.15000
C685        C  0.25397220  0.20256982  0.94349822     0.36650
C686        C  0.24546518  0.29835571  0.55549658     0.36560
N687        N  0.25511106  0.18362802  0.91909576    -0.43690
N688        N  0.24432235  0.31726378  0.57999361    -0.43690
loop_ 
_geom_bond_atom_site_label_1 
_geom_bond_atom_site_label_2 
_geom_bond_distance 
_geom_bond_site_symmetry_2 
_ccdc_geom_bond_type 
O1           Cu9   2.013   1_565  S
O1           C11   1.278       .  A
O2         Cu353   2.014       .  S
O2           C12   1.278       .  A
O3           Cu9   2.004       .  S
O3           C13   1.277   1_545  A
O4         Cu353   2.002       .  S
O4           C14   1.277       .  A
O5          Cu10   2.008   1_554  S
O5           C14   1.278       .  A
O6         Cu354   2.007       .  S
O6           C13   1.278       .  A
O7          Cu10   2.009   1_554  S
O7           C12   1.277       .  A
O8         Cu354   2.007       .  S
O8           C11   1.277       .  A
Cu9         O346   2.014       .  S
Cu9         O348   2.003       .  S
Cu9        Cu354   2.377   1_545  S
Cu10        O350   2.007   1_545  S
Cu10        O352   2.008   1_545  S
Cu10       Cu353   2.376   1_556  S
C11         C434   1.469       .  S
C12          C42   1.470       .  S
C13          C27   1.464       .  S
C14          C28   1.464   1_545  S
O15         Cu23   2.004   1_545  S
O15          C25   1.277       .  A
O16         Cu23   2.005       .  S
O16          C26   1.277       .  A
O17         Cu23   2.007       .  S
O17          C27   1.278       .  A
O18         Cu23   2.008       .  S
O18          C28   1.278       .  A
O19         Cu24   2.003       .  S
O19          C28   1.277       .  A
O20         Cu24   2.003       .  S
O20          C27   1.277       .  A
O21         Cu24   2.014       .  S
O21          C26   1.278       .  A
O22         Cu24   2.013   1_545  S
O22          C25   1.278       .  A
Cu23        Cu24   2.377       .  S
C25          C66   1.468       .  S
C26         C114   1.469       .  S
N29          N30   1.322       .  A
N29          C33   1.346       .  A
N29         Cu37   2.078       .  S
N30          C31   1.342       .  A
N30         Cu36   2.068   1_556  S
C31          C32   1.383       .  A
C31          H34   1.081   1_556  S
C32         C333   1.483       .  S
C32          C33   1.387       .  A
C33          H35   1.082       .  S
Cu36         N39   2.067       .  S
Cu37         N47   2.078       .  S
Cu38         N40   2.073       .  S
Cu38         N46   2.073   1_554  S
N39          N40   1.321       .  A
N39          C43   1.345       .  A
N40          C41   1.346       .  A
C41          C42   1.384       .  A
C41          H44   1.082       .  S
C42          C43   1.383       .  A
C43          H45   1.082       .  S
N46          N47   1.323       .  A
N46          C50   1.343       .  A
N47          C48   1.347       .  A
C48          C49   1.384       .  A
C48          H51   1.082       .  S
C49         C321   1.478       .  S
C49          C50   1.382       .  A
C50          H52   1.082   1_556  S
N53          N54   1.321       .  A
N53          C57   1.346       .  A
N53         Cu61   2.084       .  S
N54          C55   1.342       .  A
N54         Cu60   2.064       .  S
C55          C56   1.386       .  A
C55          H58   1.079       .  S
C56         C300   1.493       .  S
C56          C57   1.392       .  A
C57          H59   1.082       .  S
Cu60         N63   2.064       .  S
Cu61         N71   2.085       .  S
Cu62         N64   2.072       .  S
Cu62         N70   2.072       .  S
N63          N64   1.321       .  A
N63          C67   1.344       .  A
N64          C65   1.345       .  A
C65          C66   1.384       .  A
C65          H68   1.082       .  S
C66          C67   1.382       .  A
C67          H69   1.082       .  S
N70          N71   1.324       .  A
N70          C74   1.345       .  A
N71          C72   1.346       .  A
C72          C73   1.384       .  A
C72          H75   1.082       .  S
C73         C309   1.477       .  S
C73          C74   1.380       .  A
C74          H76   1.082       .  S
N77          N78   1.321       .  A
N77          C81   1.345       .  A
N77         Cu85   2.072   1_556  S
N78          C79   1.343       .  A
N78         Cu84   2.073       .  S
C79          C80   1.387       .  A
C79          H82   1.082       .  S
C80         C285   1.488       .  S
C80          C81   1.388       .  A
C81          H83   1.081   1_556  S
Cu84         N87   2.073       .  S
Cu85         N95   2.072       .  S
Cu86         N88   2.070   1_554  S
Cu86         N94   2.070       .  S
N87          N88   1.322       .  A
N87          C91   1.345       .  A
N88          C89   1.345   1_556  A
C89          C90   1.383   1_554  A
C89          H92   1.082       .  S
C90         C355   1.469       .  S
C90          C91   1.383       .  A
C91          H93   1.082       .  S
N94          N95   1.322       .  A
N94          C98   1.343       .  A
N95          C96   1.345       .  A
C96          C97   1.383       .  A
C96          H99   1.082   1_554  S
C97         C276   1.477       .  S
C97          C98   1.382       .  A
C98         H100   1.082       .  S
N101        N102   1.323       .  A
N101        C105   1.347       .  A
N101       Cu109   2.078       .  S
N102        C103   1.343       .  A
N102       Cu108   2.068       .  S
C103        C104   1.381       .  A
C103        H106   1.082       .  S
C104        C264   1.478       .  S
C104        C105   1.384       .  A
C105        H107   1.082       .  S
Cu108       N111   2.068       .  S
Cu109       N119   2.078       .  S
Cu110       N112   2.072       .  S
Cu110       N118   2.072       .  S
N111        N112   1.321       .  A
N111        C115   1.345       .  A
N112        C113   1.345       .  A
C113        C114   1.383       .  A
C113        H116   1.082       .  S
C114        C115   1.383       .  A
C115        H117   1.082       .  S
N118        N119   1.323       .  A
N118        C122   1.344       .  A
N119        C120   1.346       .  A
C120        C121   1.384       .  A
C120        H123   1.082       .  S
C121        C252   1.480       .  S
C121        C122   1.383       .  A
C122        H124   1.082       .  S
N125        N126   1.321       .  A
N125        C129   1.345       .  A
N125       Cu133   2.073   1_654  S
N126        C127   1.343       .  A
N126       Cu132   2.071       .  S
C127        C128   1.386       .  A
C127        H130   1.082       .  S
C128        C288   1.488       .  S
C128        C129   1.388       .  A
C129        H131   1.081   1_554  S
Cu132       N135   2.071       .  S
Cu133       N143   2.072       .  S
Cu134       N136   2.072   1_556  S
Cu134       N142   2.071       .  S
N135        N136   1.322   1_655  A
N135        C139   1.345       .  A
N136        C137   1.345   1_554  A
C137        C138   1.383   1_456  A
C137        H140   1.082       .  S
C138        C231   1.469       .  S
C138        C139   1.383       .  A
C139        H141   1.082       .  S
N142        N143   1.322       .  A
N142        C146   1.344       .  A
N143        C144   1.345       .  A
C144        C145   1.383       .  A
C144        H147   1.082   1_556  S
C145        C273   1.477       .  S
C145        C146   1.382       .  A
C146        H148   1.082       .  S
N149        N150   1.323       .  A
N149        C153   1.346       .  A
N149       Cu157   2.078       .  S
N150        C151   1.343       .  A
N150       Cu156   2.069       .  S
C151        C152   1.381       .  A
C151        H154   1.082       .  S
C152        C261   1.478       .  S
C152        C153   1.384       .  A
C153        H155   1.082       .  S
Cu156       N159   2.069       .  S
Cu157       N167   2.078   1_655  S
Cu158       N160   2.070       .  S
Cu158       N166   2.070       .  S
N159        N160   1.321   1_655  A
N159        C163   1.345       .  A
N160        C161   1.345       .  A
C161        C162   1.383   1_455  A
C161        H164   1.082       .  S
C162        C245   1.469       .  S
C162        C163   1.383       .  A
C163        H165   1.082       .  S
N166        N167   1.323       .  A
N166        C170   1.343       .  A
N167        C168   1.346       .  A
C168        C169   1.385       .  A
C168        H171   1.082       .  S
C169        C249   1.479       .  S
C169        C170   1.382       .  A
C170        H172   1.082       .  S
N173        N174   1.322       .  A
N173        C177   1.346       .  A
N173       Cu181   2.078   1_455  S
N174        C175   1.342       .  A
N174       Cu180   2.069   1_554  S
C175        C176   1.384       .  A
C175        H178   1.081   1_554  S
C176        C336   1.484       .  S
C176        C177   1.387       .  A
C177        H179   1.082       .  S
Cu180       N183   2.069       .  S
Cu181       N191   2.078       .  S
Cu182       N184   2.070       .  S
Cu182       N190   2.071   1_556  S
N183        N184   1.321   1_455  A
N183        C187   1.345       .  A
N184        C185   1.346       .  A
C185        C186   1.384       .  A
C185        H188   1.082       .  S
C186        C232   1.469       .  S
C186        C187   1.383   1_655  A
C187        H189   1.082       .  S
N190        N191   1.323       .  A
N190        C194   1.342   1_554  A
N191        C192   1.347       .  A
C192        C193   1.384       .  A
C192        H195   1.082       .  S
C193        C324   1.478   1_554  S
C193        C194   1.381   1_554  A
C194        H196   1.082       .  S
N197        N198   1.323       .  A
N197        C201   1.347       .  A
N197       Cu205   2.084   1_455  S
N198        C199   1.344       .  A
N198       Cu204   2.070       .  S
C199        C200   1.380       .  A
C199        H202   1.082       .  S
C200        C312   1.477       .  S
C200        C201   1.385       .  A
C201        H203   1.082       .  S
Cu204       N207   2.070       .  S
Cu205       N215   2.084       .  S
Cu206       N208   2.067       .  S
Cu206       N214   2.067       .  S
N207        N208   1.321   1_455  A
N207        C211   1.345       .  A
N208        C209   1.344       .  A
C209        C210   1.382       .  A
C209        H212   1.082       .  S
C210        C246   1.468       .  S
C210        C211   1.383   1_655  A
C211        H213   1.082       .  S
N214        N215   1.321       .  A
N214        C218   1.343       .  A
N215        C216   1.346       .  A
C216        C217   1.391       .  A
C216        H219   1.082       .  S
C217        C297   1.493       .  S
C217        C218   1.387       .  A
C218        H220   1.080       .  S
O221       Cu229   2.008   1_554  S
O221        C231   1.277   1_455  A
O222       Cu229   2.008       .  S
O222        C232   1.277   1_455  A
O223       Cu573   2.005       .  S
O223        C233   1.277   1_455  A
O224       Cu229   2.006   1_554  S
O224        C234   1.277   1_455  A
O225       Cu230   2.004       .  S
O225        C234   1.277       .  A
O226       Cu574   2.005       .  S
O226        C233   1.277       .  A
O227       Cu230   2.013   1_556  S
O227        C232   1.278       .  A
O228       Cu230   2.012       .  S
O228        C231   1.278       .  A
Cu229       O567   2.005       .  S
Cu229      Cu230   2.377   1_456  S
Cu230       O570   2.005   1_554  S
C233        C248   1.464       .  S
C234        C247   1.464       .  S
O235       Cu243   2.011       .  S
O235        C245   1.278   1_455  A
O236       Cu243   2.010       .  S
O236        C246   1.278   1_455  A
O237       Cu243   2.004       .  S
O237        C247   1.277   1_455  A
O238       Cu243   2.005       .  S
O238        C248   1.277   1_455  A
O239       Cu244   2.006       .  S
O239        C248   1.277       .  A
O240       Cu244   2.005       .  S
O240        C247   1.277       .  A
O241       Cu244   2.007       .  S
O241        C246   1.277       .  A
O242       Cu244   2.009       .  S
O242        C245   1.277       .  A
Cu243      Cu244   2.377   1_455  S
C249        C250   1.403       .  A
C249        C254   1.413       .  A
C250        C251   1.401       .  A
C250        H255   1.085       .  S
C251        C252   1.413       .  A
C251        C258   1.444       .  S
C252        C253   1.403       .  A
C253        C254   1.400       .  A
C253        H256   1.085       .  S
C254        C257   1.444       .  S
C257        N259   1.157       .  T
C258        N260   1.157       .  T
C261        C262   1.403       .  A
C261        C266   1.413       .  A
C262        C263   1.400       .  A
C262        H267   1.085       .  S
C263        C264   1.412       .  A
C263        C270   1.444       .  S
C264        C265   1.403       .  A
C265        C266   1.400       .  A
C265        H268   1.085       .  S
C266        C269   1.444       .  S
C269        N271   1.157       .  T
C270        N272   1.157       .  T
C273        C274   1.403   1_556  A
C273        C622   1.412       .  A
C274        C275   1.400       .  A
C274        H279   1.085       .  S
C275        C276   1.412       .  A
C275        C282   1.444       .  S
C276        C621   1.403   1_554  A
C277        C278   1.400       .  A
C277        C620   1.403       .  A
C277        H280   1.085       .  S
C278        C617   1.412       .  A
C278        C281   1.444       .  S
C281        N283   1.157       .  T
C282        N284   1.157       .  T
C285        C286   1.405   1_556  A
C285        C634   1.414       .  A
C286        C287   1.400       .  A
C286        H291   1.084       .  S
C287        C288   1.414       .  A
C287        C294   1.443       .  S
C288        C633   1.405   1_554  A
C289        C290   1.400       .  A
C289        C632   1.405       .  A
C289        H292   1.084       .  S
C290        C629   1.414       .  A
C290        C293   1.443       .  S
C293        N295   1.157       .  T
C294        N296   1.157       .  T
C297        C298   1.405       .  A
C297        C302   1.417       .  A
C298        C299   1.401       .  A
C298        H303   1.084       .  S
C299        C300   1.417       .  A
C299        C306   1.443       .  S
C300        C301   1.405       .  A
C301        C302   1.401       .  A
C301        H304   1.084       .  S
C302        C305   1.443       .  S
C305        N307   1.158       .  T
C306        N308   1.158       .  T
C309        C310   1.403       .  A
C309        C314   1.410       .  A
C310        C311   1.401       .  A
C310        H315   1.085       .  S
C311        C312   1.410       .  A
C311        C318   1.443       .  S
C312        C313   1.403       .  A
C313        C314   1.401       .  A
C313        H316   1.085       .  S
C314        C317   1.443       .  S
C317        N319   1.157       .  T
C318        N320   1.157       .  T
C321        C326   1.412   1_556  A
C321        C666   1.402       .  A
C322        C323   1.401       .  A
C322        C665   1.402       .  A
C322        H327   1.085       .  S
C323        C668   1.412       .  A
C323        C330   1.443       .  S
C324        C325   1.402   1_556  A
C324        C667   1.412       .  A
C325        C326   1.401       .  A
C325        H328   1.085       .  S
C326        C329   1.443       .  S
C329        N331   1.157       .  T
C330        N332   1.157       .  T
C333        C334   1.403   1_556  A
C333        C682   1.414       .  A
C334        C335   1.400       .  A
C334        H339   1.084       .  S
C335        C336   1.414       .  A
C335        C342   1.444       .  S
C336        C681   1.403   1_554  A
C337        C338   1.400       .  A
C337        C680   1.403       .  A
C337        H340   1.084       .  S
C338        C677   1.414       .  A
C338        C341   1.444       .  S
C341        N343   1.157       .  T
C342        N344   1.157       .  T
O345       Cu353   2.013   1_566  S
O345        C355   1.278       .  A
O346        C356   1.278       .  A
O347       Cu353   2.003   1_556  S
O347        C357   1.277       .  A
O348        C358   1.277       .  A
O349       Cu354   2.008       .  S
O349        C358   1.278   1_565  A
O350        C357   1.278   1_565  A
O351       Cu354   2.008   1_545  S
O351        C356   1.277       .  A
O352        C355   1.277       .  A
C356        C386   1.469       .  S
C357        C371   1.464   1_545  S
C358        C372   1.464   1_545  S
O359       Cu367   2.004   1_545  S
O359        C369   1.277       .  A
O360       Cu367   2.005       .  S
O360        C370   1.277       .  A
O361       Cu367   2.007       .  S
O361        C371   1.278       .  A
O362       Cu367   2.008       .  S
O362        C372   1.278       .  A
O363       Cu368   2.003       .  S
O363        C372   1.277       .  A
O364       Cu368   2.003       .  S
O364        C371   1.277       .  A
O365       Cu368   2.014       .  S
O365        C370   1.278       .  A
O366       Cu368   2.013   1_545  S
O366        C369   1.278       .  A
Cu367      Cu368   2.377       .  S
C369        C410   1.468       .  S
C370        C458   1.469       .  S
N373        N374   1.322       .  A
N373        C377   1.346       .  A
N373       Cu381   2.078       .  S
N374        C375   1.342       .  A
N374       Cu380   2.067       .  S
C375        C376   1.384       .  A
C375        H378   1.081       .  S
C376        C677   1.484       .  S
C376        C377   1.387       .  A
C377        H379   1.082       .  S
Cu380       N383   2.067       .  S
Cu381       N391   2.078       .  S
Cu382       N384   2.073       .  S
Cu382       N390   2.073       .  S
N383        N384   1.321       .  A
N383        C387   1.345       .  A
N384        C385   1.345       .  A
C385        C386   1.384       .  A
C385        H388   1.082       .  S
C386        C387   1.383       .  A
C387        H389   1.082       .  S
N390        N391   1.323       .  A
N390        C394   1.343       .  A
N391        C392   1.347       .  A
C392        C393   1.384       .  A
C392        H395   1.082       .  S
C393        C665   1.478       .  S
C393        C394   1.382       .  A
C394        H396   1.082       .  S
N397        N398   1.321       .  A
N397        C401   1.346       .  A
N397       Cu405   2.084       .  S
N398        C399   1.342       .  A
N398       Cu404   2.064       .  S
C399        C400   1.386       .  A
C399        H402   1.079       .  S
C400        C644   1.493       .  S
C400        C401   1.392       .  A
C401        H403   1.082       .  S
Cu404       N407   2.064       .  S
Cu405       N415   2.085       .  S
Cu406       N408   2.072       .  S
Cu406       N414   2.072       .  S
N407        N408   1.321       .  A
N407        C411   1.344       .  A
N408        C409   1.345       .  A
C409        C410   1.384       .  A
C409        H412   1.082       .  S
C410        C411   1.382       .  A
C411        H413   1.082       .  S
N414        N415   1.324       .  A
N414        C418   1.345       .  A
N415        C416   1.346       .  A
C416        C417   1.384       .  A
C416        H419   1.082       .  S
C417        C653   1.477       .  S
C417        C418   1.380       .  A
C418        H420   1.082       .  S
N421        N422   1.321       .  A
N421        C425   1.345       .  A
N421       Cu429   2.072       .  S
N422        C423   1.343       .  A
N422       Cu428   2.073       .  S
C423        C424   1.387       .  A
C423        H426   1.082       .  S
C424        C629   1.488       .  S
C424        C425   1.388       .  A
C425        H427   1.081       .  S
Cu428       N431   2.073       .  S
Cu429       N439   2.072       .  S
Cu430       N432   2.069       .  S
Cu430       N438   2.069       .  S
N431        N432   1.322       .  A
N431        C435   1.345       .  A
N432        C433   1.345       .  A
C433        C434   1.383       .  A
C433        H436   1.082       .  S
C434        C435   1.383       .  A
C435        H437   1.082       .  S
N438        N439   1.322       .  A
N438        C442   1.343       .  A
N439        C440   1.345       .  A
C440        C441   1.383       .  A
C440        H443   1.082       .  S
C441        C620   1.477       .  S
C441        C442   1.382       .  A
C442        H444   1.082       .  S
N445        N446   1.323       .  A
N445        C449   1.347       .  A
N445       Cu453   2.078       .  S
N446        C447   1.343       .  A
N446       Cu452   2.068       .  S
C447        C448   1.381       .  A
C447        H450   1.082       .  S
C448        C608   1.478       .  S
C448        C449   1.384       .  A
C449        H451   1.082       .  S
Cu452       N455   2.068       .  S
Cu453       N463   2.078       .  S
Cu454       N456   2.072       .  S
Cu454       N462   2.072       .  S
N455        N456   1.321       .  A
N455        C459   1.345       .  A
N456        C457   1.345       .  A
C457        C458   1.383       .  A
C457        H460   1.082       .  S
C458        C459   1.383       .  A
C459        H461   1.082       .  S
N462        N463   1.323       .  A
N462        C466   1.344       .  A
N463        C464   1.346       .  A
C464        C465   1.384       .  A
C464        H467   1.082       .  S
C465        C596   1.480       .  S
C465        C466   1.383       .  A
C466        H468   1.082       .  S
N469        N470   1.321       .  A
N469        C473   1.345       .  A
N469       Cu477   2.072   1_655  S
N470        C471   1.343       .  A
N470       Cu476   2.071       .  S
C471        C472   1.386       .  A
C471        H474   1.082       .  S
C472        C632   1.488       .  S
C472        C473   1.388       .  A
C473        H475   1.081       .  S
Cu476       N479   2.071       .  S
Cu477       N487   2.072       .  S
Cu478       N480   2.072       .  S
Cu478       N486   2.071       .  S
N479        N480   1.322   1_655  A
N479        C483   1.345       .  A
N480        C481   1.345       .  A
C481        C482   1.383   1_455  A
C481        H484   1.082       .  S
C482        C575   1.469       .  S
C482        C483   1.383       .  A
C483        H485   1.082       .  S
N486        N487   1.322       .  A
N486        C490   1.344       .  A
N487        C488   1.345       .  A
C488        C489   1.383       .  A
C488        H491   1.082       .  S
C489        C617   1.477       .  S
C489        C490   1.382       .  A
C490        H492   1.082       .  S
N493        N494   1.323       .  A
N493        C497   1.346       .  A
N493       Cu501   2.078       .  S
N494        C495   1.343       .  A
N494       Cu500   2.069       .  S
C495        C496   1.381       .  A
C495        H498   1.082       .  S
C496        C605   1.478       .  S
C496        C497   1.384       .  A
C497        H499   1.082       .  S
Cu500       N503   2.069       .  S
Cu501       N511   2.078   1_655  S
Cu502       N504   2.070       .  S
Cu502       N510   2.070       .  S
N503        N504   1.321   1_655  A
N503        C507   1.345       .  A
N504        C505   1.345       .  A
C505        C506   1.383   1_455  A
C505        H508   1.082       .  S
C506        C589   1.469       .  S
C506        C507   1.383       .  A
C507        H509   1.082       .  S
N510        N511   1.323       .  A
N510        C514   1.343       .  A
N511        C512   1.346       .  A
C512        C513   1.385       .  A
C512        H515   1.082       .  S
C513        C593   1.479       .  S
C513        C514   1.382       .  A
C514        H516   1.082       .  S
N517        N518   1.322       .  A
N517        C521   1.346       .  A
N517       Cu525   2.078   1_455  S
N518        C519   1.342       .  A
N518       Cu524   2.069       .  S
C519        C520   1.384       .  A
C519        H522   1.081       .  S
C520        C680   1.484       .  S
C520        C521   1.387       .  A
C521        H523   1.082       .  S
Cu524       N527   2.069       .  S
Cu525       N535   2.078       .  S
Cu526       N528   2.070       .  S
Cu526       N534   2.071       .  S
N527        N528   1.321   1_455  A
N527        C531   1.345       .  A
N528        C529   1.346       .  A
C529        C530   1.384       .  A
C529        H532   1.082       .  S
C530        C576   1.469       .  S
C530        C531   1.383   1_655  A
C531        H533   1.082       .  S
N534        N535   1.323       .  A
N534        C538   1.343       .  A
N535        C536   1.347       .  A
C536        C537   1.384       .  A
C536        H539   1.082       .  S
C537        C668   1.478       .  S
C537        C538   1.381       .  A
C538        H540   1.082       .  S
N541        N542   1.323       .  A
N541        C545   1.347       .  A
N541       Cu549   2.084   1_455  S
N542        C543   1.344       .  A
N542       Cu548   2.070       .  S
C543        C544   1.380       .  A
C543        H546   1.082       .  S
C544        C656   1.477       .  S
C544        C545   1.385       .  A
C545        H547   1.082       .  S
Cu548       N551   2.070       .  S
Cu549       N559   2.084       .  S
Cu550       N552   2.067       .  S
Cu550       N558   2.067       .  S
N551        N552   1.321   1_455  A
N551        C555   1.345       .  A
N552        C553   1.344       .  A
C553        C554   1.382       .  A
C553        H556   1.082       .  S
C554        C590   1.468       .  S
C554        C555   1.383   1_655  A
C555        H557   1.082       .  S
N558        N559   1.321       .  A
N558        C562   1.343       .  A
N559        C560   1.346       .  A
C560        C561   1.391       .  A
C560        H563   1.082       .  S
C561        C641   1.493       .  S
C561        C562   1.387       .  A
C562        H564   1.080       .  S
O565       Cu573   2.008       .  S
O565        C575   1.277   1_455  A
O566       Cu573   2.009       .  S
O566        C576   1.277   1_455  A
O567        C577   1.277   1_455  A
O568       Cu573   2.006       .  S
O568        C578   1.277   1_455  A
O569       Cu574   2.004       .  S
O569        C578   1.277       .  A
O570        C577   1.277       .  A
O571       Cu574   2.013       .  S
O571        C576   1.278       .  A
O572       Cu574   2.012       .  S
O572        C575   1.278       .  A
Cu573      Cu574   2.377   1_455  S
C577        C592   1.464       .  S
C578        C591   1.464       .  S
O579       Cu587   2.011       .  S
O579        C589   1.278   1_455  A
O580       Cu587   2.010       .  S
O580        C590   1.278   1_455  A
O581       Cu587   2.004       .  S
O581        C591   1.277   1_455  A
O582       Cu587   2.005       .  S
O582        C592   1.277   1_455  A
O583       Cu588   2.006       .  S
O583        C592   1.277       .  A
O584       Cu588   2.005       .  S
O584        C591   1.277       .  A
O585       Cu588   2.007       .  S
O585        C590   1.277       .  A
O586       Cu588   2.009       .  S
O586        C589   1.277       .  A
Cu587      Cu588   2.377   1_455  S
C593        C594   1.403       .  A
C593        C598   1.413       .  A
C594        C595   1.401       .  A
C594        H599   1.085       .  S
C595        C596   1.413       .  A
C595        C602   1.444       .  S
C596        C597   1.403       .  A
C597        C598   1.400       .  A
C597        H600   1.085       .  S
C598        C601   1.444       .  S
C601        N603   1.157       .  T
C602        N604   1.157       .  T
C605        C606   1.403       .  A
C605        C610   1.413       .  A
C606        C607   1.400       .  A
C606        H611   1.085       .  S
C607        C608   1.412       .  A
C607        C614   1.444       .  S
C608        C609   1.403       .  A
C609        C610   1.400       .  A
C609        H612   1.085       .  S
C610        C613   1.444       .  S
C613        N615   1.157       .  T
C614        N616   1.157       .  T
C617        C618   1.403       .  A
C618        C619   1.400       .  A
C618        H623   1.085       .  S
C619        C620   1.412       .  A
C619        C626   1.444       .  S
C621        C622   1.400       .  A
C621        H624   1.085       .  S
C622        C625   1.444       .  S
C625        N627   1.157       .  T
C626        N628   1.157       .  T
C629        C630   1.405       .  A
C630        C631   1.400       .  A
C630        H635   1.084       .  S
C631        C632   1.414       .  A
C631        C638   1.443       .  S
C633        C634   1.400       .  A
C633        H636   1.084       .  S
C634        C637   1.443       .  S
C637        N639   1.157       .  T
C638        N640   1.157       .  T
C641        C642   1.405       .  A
C641        C646   1.417       .  A
C642        C643   1.401       .  A
C642        H647   1.084       .  S
C643        C644   1.417       .  A
C643        C650   1.443       .  S
C644        C645   1.405       .  A
C645        C646   1.401       .  A
C645        H648   1.084       .  S
C646        C649   1.443       .  S
C649        N651   1.158       .  T
C650        N652   1.158       .  T
C653        C654   1.403       .  A
C653        C658   1.410       .  A
C654        C655   1.401       .  A
C654        H659   1.085       .  S
C655        C656   1.410       .  A
C655        C662   1.443       .  S
C656        C657   1.403       .  A
C657        C658   1.401       .  A
C657        H660   1.085       .  S
C658        C661   1.443       .  S
C661        N663   1.157       .  T
C662        N664   1.157       .  T
C665        C670   1.412       .  A
C666        C667   1.401       .  A
C666        H671   1.085       .  S
C667        C674   1.443       .  S
C668        C669   1.402       .  A
C669        C670   1.401       .  A
C669        H672   1.085       .  S
C670        C673   1.443       .  S
C673        N675   1.157       .  T
C674        N676   1.157       .  T
C677        C678   1.403       .  A
C678        C679   1.400       .  A
C678        H683   1.084       .  S
C679        C680   1.414       .  A
C679        C686   1.444       .  S
C681        C682   1.400       .  A
C681        H684   1.084       .  S
C682        C685   1.444       .  S
C685        N687   1.157       .  T
C686        N688   1.157       .  T
