geometry optimzed in LAMMPS
_audit_creation_date              2020-12-01 
_audit_creation_method            'lammps2cif' 
_symmetry_space_group_name_H-M    'P1' 
_symmetry_Int_Tables_number       1 
_symmetry_cell_setting            triclinic 
loop_ 
_symmetry_equiv_pos_as_xyz 
  x,y,z 
_cell_length_a                    35.5420944 
_cell_length_b                    35.512683189101125 
_cell_length_c                    64.96915677319406 
_cell_angle_alpha                 90.01043778638959 
_cell_angle_beta                  90.00790975109287 
_cell_angle_gamma                 120.10931085351842 
loop_ 
_atom_site_label 
_atom_site_type_symbol 
_atom_site_fract_x 
_atom_site_fract_y 
_atom_site_fract_z 
_atom_site_charge 
O1          O  0.25564361  0.36504052  0.47776440    -0.78800
C2          C  0.17246785  0.42369575  0.47184597     0.82200
O3          O  0.21850088  0.38958147  0.54783487    -0.79900
O4          O  0.07900153  0.33795089  0.51820630    -0.81400
O5          O  0.10560391  0.24297879  0.47630627    -0.81200
O6          O  0.21445126  0.29275059  0.47732933    -0.79800
Zn7        Zn  0.21877373  0.38298081  0.49457568     1.55700
O8          O  0.07454164  0.28406211  0.47751110    -0.81200
Cd9        Cd  0.16053483  0.27965484  0.49409699     1.59700
Cd10       Cd  0.16486494  0.33280278  0.53641665     1.59600
O11         O  0.16169109  0.24304281  0.51796242    -0.81200
O12         O  0.16578929  0.33423097  0.50506273    -1.91700
Cd13       Cd  0.11593373  0.33860028  0.49412182     1.59900
O14         O  0.16760275  0.27840950  0.54732869    -0.81200
O15         O  0.13424908  0.39339470  0.47620913    -0.79800
C16         C  0.24938901  0.42057119  0.53780048     0.82700
C17         C  0.24905013  0.32761395  0.47255707     0.82300
O18         O  0.20613295  0.42276199  0.47771520    -0.78800
C19         C  0.07466620  0.24981071  0.47190637     0.83200
O20         O  0.25245621  0.41966686  0.51831464    -0.78900
C21         C  0.16638317  0.24674636  0.53740138     0.83300
C22         C  0.07803176  0.33241157  0.53758492     0.83600
O23         O  0.10798794  0.33000289  0.54730889    -0.81300
C24         C  0.29197763  0.34514101  0.37831271     0.79900
N25         N  0.33175102  0.37145486  0.37028358    -0.78400
C26         C  0.36836375  0.38226240  0.38113613     0.82300
N27         N  0.36511168  0.36694009  0.40071363    -0.78400
C28         C  0.32482296  0.33965031  0.40878272     0.82400
N29         N  0.28851985  0.32945636  0.39760723    -0.80100
C30         C  0.32093316  0.28549250  0.45835060     0.79900
N31         N  0.33209354  0.30007511  0.43859791    -0.78400
C32         C  0.31881731  0.32717490  0.43056969     0.82300
N33         N  0.29331770  0.33780500  0.44193530    -0.78400
C34         C  0.28222105  0.32306811  0.46142048     0.82400
N35         N  0.29586783  0.29691787  0.46938480    -0.80100
C36         C  0.00907830  0.12742601  0.38136713     0.79900
N37         N  0.49703635  0.13068912  0.40095638    -0.78400
C38         C  0.00977956  0.17108166  0.40888025     0.82300
N39         N  0.03555372  0.20733254  0.39759306    -0.78400
C40         C  0.04769024  0.20378807  0.37832747     0.82400
N41         N  0.03454184  0.16401304  0.37043131    -0.80100
C42         C  0.46031424  0.17774982  0.45807779     0.79900
N43         N  0.46332849  0.16502009  0.43859920    -0.78400
C44         C  0.00358958  0.17765989  0.43059958     0.82300
N45         N  0.03995497  0.20407444  0.44168989    -0.78400
C46         C  0.03661379  0.21693518  0.46083720     0.82400
N47         N  0.49697488  0.20381574  0.46881552    -0.80100
C48         C  0.17883441  0.46199296  0.46053115     0.79900
N49         N  0.16307473  0.45856415  0.44127052    -0.78400
C50         C  0.17324785  0.49486562  0.43010019     0.82300
N51         N  0.20054071  0.03521884  0.43819088    -0.78400
C52         C  0.21588303  0.03842851  0.45778862     0.82400
N53         N  0.20511854  0.50176240  0.46859285    -0.80100
C54         C  0.11650708  0.98859870  0.38103260     0.79900
N55         N  0.13238004  0.00102930  0.40053459    -0.78400
C56         C  0.16024614  0.98850759  0.40835423     0.82300
N57         N  0.17030791  0.46244866  0.39704395    -0.78400
C58         C  0.15418044  0.45001138  0.37783365     0.82400
N59         N  0.12736871  0.46299972  0.37007763    -0.80100
O60         O  0.19576514  0.42300801  0.36146245    -0.78800
C61         C  0.25376699  0.33900780  0.36698303     0.82200
O62         O  0.22018814  0.38595579  0.29121936    -0.79900
O63         O  0.16648879  0.24539897  0.32046711    -0.81400
O64         O  0.07322070  0.27266376  0.36266812    -0.81200
O65         O  0.12350347  0.38201685  0.36194555    -0.79800
Zn66       Zn  0.21340436  0.38601559  0.34451654     1.55700
O67         O  0.11449783  0.24182935  0.36151955    -0.81200
Cd68       Cd  0.11002259  0.32797259  0.34500979     1.59700
Cd69       Cd  0.16322530  0.33239173  0.30254930     1.59600
O70         O  0.07369250  0.32940993  0.32104472    -0.81200
O71         O  0.16447421  0.33312445  0.33393302    -1.91700
Cd72       Cd  0.16852339  0.28290027  0.34464386     1.59900
O73         O  0.10920240  0.33559482  0.29169408    -0.81200
O74         O  0.22360207  0.30087335  0.36231915    -0.79800
C75         C  0.25120197  0.41681578  0.30126970     0.82700
C76         C  0.15846162  0.41656420  0.36673477     0.82300
O77         O  0.25282487  0.37285375  0.36138708    -0.78800
C78         C  0.08022767  0.24182216  0.36711725     0.83200
O79         O  0.25026271  0.41987310  0.32076784    -0.78900
C80         C  0.07750785  0.33424268  0.30160471     0.83300
C81         C  0.16103016  0.24459938  0.30108387     0.83600
O82         O  0.15950057  0.27511100  0.29141082    -0.81300
C83         C  0.36872867  0.48330195  0.29358475     0.79900
N84         N  0.32911276  0.45835671  0.30200813    -0.78400
C85         C  0.29238015  0.44706721  0.29118601     0.82300
N86         N  0.29524690  0.46052299  0.27128640    -0.78400
C87         C  0.33536078  0.48624424  0.26276661     0.82400
N88         N  0.37187999  0.99701864  0.27390328    -0.80100
C89         C  0.34189726  0.04465006  0.21451135     0.79900
N90         N  0.36848231  0.03537040  0.20351794    -0.78400
C91         C  0.38035804  0.50720697  0.21059642     0.82300
N92         N  0.36717945  0.48943086  0.22949106    -0.78400
C93         C  0.34081623  0.49870575  0.24098663     0.82400
N94         N  0.32818210  0.02672135  0.23355091    -0.80100
O95         O  0.45812344  0.41060626  0.19370466    -0.78800
C96         C  0.41352404  0.50325649  0.19923970     0.82200
O97         O  0.44232416  0.43996871  0.12384012    -0.81100
O98         O  0.49872797  0.08821307  0.15323841    -0.81400
O99         O  0.08742421  0.04985182  0.19348809    -0.81200
O100        O  0.03007012  0.44148574  0.19546423    -0.79800
Zn101      Zn  0.44435738  0.44918456  0.17691797     1.55700
O102        O  0.05516044  0.08975307  0.19465198    -0.81200
Cd103      Cd  0.04692608  0.49513209  0.17704779     1.59700
Cd104      Cd  0.49704262  0.49850678  0.13443104     1.59600
O105        O  0.08456826  0.99608230  0.15335071    -0.81200
O106        O  0.49649959  0.49803219  0.16585427    -1.91700
Cd107      Cd  0.50074974  0.05211177  0.17689373     1.59900
O108        O  0.05578302  0.00259346  0.12386376    -0.81200
O109        O  0.44719618  0.03838141  0.19390613    -0.79800
C110        C  0.41152065  0.40959474  0.13433608     0.82700
C111        C  0.49212371  0.41074541  0.19983124     0.82300
O112        O  0.40766970  0.46604859  0.19425956    -0.78800
C113        C  0.08648849  0.08363083  0.19909979     0.83200
O114        O  0.40946589  0.41169283  0.15380277    -0.78900
C115        C  0.08610476  0.00121438  0.13394474     0.83300
C116        C  0.49372954  0.08455294  0.13383843     0.83600
O117        O  0.49281807  0.05301941  0.12378722    -0.81300
C118        C  0.15032058  0.20371359  0.29084584     0.79900
N119        N  0.12516219  0.16684537  0.30163421    -0.78400
C120        C  0.11119712  0.12730338  0.29328773     0.82300
N121        N  0.12219395  0.12435495  0.27366126    -0.78400
C122        C  0.14781326  0.16109834  0.26257443     0.82400
N123        N  0.16141556  0.20113015  0.27102624    -0.80100
C124        C  0.19984447  0.15499132  0.21432216     0.79900
N125        N  0.19567231  0.16845397  0.23342950    -0.78400
C126        C  0.15499715  0.15590751  0.24082260     0.82300
N127        N  0.11933377  0.12973912  0.22928940    -0.78400
C128        C  0.12386280  0.11655751  0.21040965     0.82400
N129        N  0.16389016  0.12846124  0.20329800    -0.80100
C130        C  0.04681264  0.34448523  0.29156142     0.79900
N131        N  0.03487355  0.36914882  0.30256720    -0.78400
C132        C  0.50941994  0.38331732  0.29435359     0.82300
N133        N  0.49595890  0.37316989  0.27461957    -0.78400
C134        C  0.50717119  0.34796929  0.26331410     0.82400
N135        N  0.03345558  0.33411227  0.27163857    -0.80100
C136        C  0.49486060  0.34139334  0.24153181     0.79900
N137        N  0.46707211  0.30080392  0.23388894    -0.78400
C138        C  0.44915275  0.29691163  0.21488061     0.82300
N139        N  0.45828761  0.33304757  0.20407770    -0.78400
C140        C  0.48635987  0.37305053  0.21137013     0.82400
N141        N  0.00418521  0.37729743  0.23022109    -0.80100
O142        O  0.40854202  0.45669324  0.31079042    -0.78800
C143        C  0.50433746  0.41595017  0.30570703     0.82200
O144        O  0.44061044  0.44416849  0.38146044    -0.79900
O145        O  0.08868263  0.00344678  0.35174410    -0.81400
O146        O  0.04463710  0.08837351  0.31030220    -0.81200
O147        O  0.43625703  0.02844338  0.31007338    -0.79800
Zn148      Zn  0.44817124  0.44460156  0.32810766     1.55700
O149        O  0.08751705  0.05933448  0.30969427    -0.81200
Cd150      Cd  0.49145763  0.04733878  0.32778897     1.59700
Cd151      Cd  0.49792114  0.49857821  0.37028621     1.59600
O152        O  0.99325577  0.08497058  0.35197116    -0.81200
O153        O  0.49666203  0.49789079  0.33880082    -1.91700
Cd154      Cd  0.05174285  0.50426591  0.32776862     1.59900
O155        O  0.00078871  0.05605033  0.38120355    -0.81200
O156        O  0.03893105  0.45075570  0.31059668    -0.79800
C157        C  0.40979476  0.41322549  0.37128641     0.82700
C158        C  0.40693816  0.49013974  0.30513220     0.82300
O159        O  0.46679170  0.40849784  0.31116664    -0.78800
C160        C  0.07929101  0.08912482  0.30471684     0.83200
O161        O  0.41109844  0.41048116  0.35178315    -0.78900
C162        C  0.99875173  0.08620851  0.37138434     0.83300
C163        C  0.08506055  0.99838756  0.37119256     0.83600
O164        O  0.05296709  0.99624550  0.38114930    -0.81300
O165        O  0.38854701  0.13390890  0.02602753    -0.78800
C166        C  0.24774839  0.07585283  0.03189945     0.82200
O167        O  0.32651844  0.10736970  0.95541706    -0.79900
O168        O  0.24054572  0.16245032  0.98472735    -0.81400
O169        O  0.36069185  0.25482795  0.02775156    -0.81200
O170        O  0.41955932  0.20610699  0.02656558    -0.79800
Zn171      Zn  0.33434078  0.11610898  0.00882551     1.55700
O172        O  0.28858302  0.21307823  0.02654831    -0.81200
Cd173      Cd  0.37934263  0.21923209  0.00930027     1.59700
Cd174      Cd  0.33113990  0.16591528  0.96639784     1.59600
O175        O  0.41789964  0.25617479  0.98556725    -0.81200
O176        O  0.33026953  0.16466701  0.99794093    -1.91700
Cd177      Cd  0.27584420  0.15999445  0.00886303     1.59900
O178        O  0.39030327  0.22040305  0.95602203    -0.81200
O179        O  0.23907889  0.10522573  0.02678358    -0.79800
C180        C  0.32662897  0.07683808  0.96586128     0.82700
C181        C  0.41899143  0.17126422  0.03158740     0.82300
O182        O  0.28248375  0.07697343  0.02615435    -0.78800
C183        C  0.32277867  0.24703203  0.03261935     0.83200
O184        O  0.33110303  0.07894666  0.98533508    -0.78900
C185        C  0.42023734  0.25234797  0.96618784     0.83300
C186        C  0.24527996  0.16901376  0.96539656     0.83600
O187        O  0.27743347  0.17100126  0.95551437    -0.81300
C188        C  0.27935844  0.31652222  0.04932155     0.79900
N189        N  0.28975667  0.29128945  0.03780317    -0.78400
C190        C  0.31711835  0.27836457  0.04483626     0.82300
N191        N  0.33430807  0.29042506  0.06391943    -0.78400
C192        C  0.32458295  0.31604020  0.07577839     0.82400
N193        N  0.29636542  0.32873088  0.06862791    -0.80100
C194        C  0.37970432  0.36774550  0.12500251     0.79900
N195        N  0.36701402  0.33159505  0.13665623    -0.78400
C196        C  0.34191940  0.29134089  0.12873906     0.82300
N197        N  0.32861810  0.28709699  0.10891950    -0.78400
C198        C  0.33901417  0.32288595  0.09729787     0.82400
N199        N  0.36569462  0.36355590  0.10512939    -0.80100
C200        C  0.17869131  0.46246309  0.04867164     0.79900
N201        N  0.20384850  0.49815831  0.03709624    -0.78400
C202        C  0.21676322  0.03856155  0.04411912     0.82300
N203        N  0.20478407  0.04372912  0.06320151    -0.78400
C204        C  0.17934326  0.00840249  0.07511375     0.82400
N205        N  0.16667189  0.46739923  0.06800177    -0.80100
C206        C  0.12779315  0.01171065  0.12436659     0.79900
N207        N  0.13193262  0.50199738  0.10447189    -0.78400
C208        C  0.17259688  0.01615182  0.09663849     0.82300
N209        N  0.20841841  0.04161067  0.10829220    -0.78400
C210        C  0.20413421  0.05049725  0.12814969     0.82400
N211        N  0.16391558  0.03512867  0.13602329    -0.80100
C212        C  0.03187400  0.21351068  0.04806263     0.79900
N213        N  0.49627757  0.20279981  0.03642852    -0.78400
C214        C  0.45582583  0.17571112  0.04350655     0.82300
N215        N  0.45051754  0.15924730  0.06274864    -0.78400
C216        C  0.48578827  0.16912564  0.07467781     0.82400
N217        N  0.02682605  0.19707611  0.06749956    -0.80100
C218        C  0.48312000  0.11555415  0.12417651     0.79900
N219        N  0.46009434  0.12867985  0.13582095    -0.78400
C220        C  0.44468738  0.15340021  0.12784202     0.82300
N221        N  0.45307318  0.16592423  0.10788273    -0.78400
C222        C  0.47814730  0.15511031  0.09624499     0.82400
N223        N  0.99239815  0.12883063  0.10420685    -0.80100
O224        O  0.27129112  0.19803235  0.20060897    -0.78800
C225        C  0.41531544  0.25552868  0.20633775     0.82200
O226        O  0.33318810  0.22103474  0.13167942    -0.79900
O227        O  0.42017693  0.16465267  0.15982410    -0.81400
O228        O  0.29775244  0.07200873  0.20130344    -0.81200
O229        O  0.24135270  0.12582244  0.20235600    -0.79800
Zn230      Zn  0.32718128  0.21575258  0.18433832     1.55700
O231        O  0.36998701  0.11492395  0.20182988    -0.81200
Cd232      Cd  0.27977544  0.11091155  0.18463104     1.59700
Cd233      Cd  0.33049472  0.16532888  0.14314624     1.59600
O234        O  0.23986344  0.07579006  0.16010614    -0.81200
O235        O  0.33059572  0.16590635  0.17420154    -1.91700
Cd236      Cd  0.38516249  0.16909984  0.18446473     1.59900
O237        O  0.27453478  0.11207465  0.13171795    -0.81200
O238        O  0.42365115  0.22566879  0.20150992    -0.79800
C239        C  0.33437224  0.25328520  0.14088002     0.82700
C240        C  0.24079086  0.16066520  0.20625594     0.82300
O241        O  0.37971830  0.25359335  0.20139708    -0.78800
C242        C  0.33556259  0.07945411  0.20632086     0.83200
O243        O  0.33180607  0.25464258  0.16042097    -0.78900
C244        C  0.24198087  0.08058642  0.14058971     0.83300
C245        C  0.41501581  0.16158991  0.14032878     0.83600
O246        O  0.38341921  0.16247730  0.13153859    -0.81300
O247        O  0.21179491  0.42013653  0.97906163    -0.78800
C248        C  0.07535751  0.32576524  0.97338422     0.82200
O249        O  0.16766950  0.38966441  0.04984195    -0.79900
O250        O  0.07644667  0.24106444  0.01943228    -0.81400
O251        O  0.20599197  0.28445069  0.97860512    -0.81200
O252        O  0.25531646  0.39201697  0.97853823    -0.79800
Zn253      Zn  0.15984000  0.38101829  0.99638512     1.55700
O254        O  0.13391788  0.24243657  0.97746931    -0.81200
Cd255      Cd  0.21844044  0.33724054  0.99638493     1.59700
Cd256      Cd  0.16304863  0.33108792  0.03883265     1.59600
O257        O  0.25360716  0.33459552  0.02048418    -0.81200
O258        O  0.16396929  0.33249205  0.00727577    -1.91700
Cd259      Cd  0.11506723  0.27798570  0.99579584     1.59900
O260        O  0.21678642  0.32601622  0.04971785    -0.81200
O261        O  0.07490891  0.29097473  0.97839129    -0.79800
C262        C  0.16759052  0.42024226  0.03941423     0.82700
C263        C  0.24658309  0.42130284  0.97335837     0.82300
O264        O  0.10562745  0.36313441  0.97906266    -0.78800
C265        C  0.17186773  0.25043023  0.97255780     0.83200
O266        O  0.16308248  0.41815525  0.01993591    -0.78900
C267        C  0.24893992  0.32805730  0.03981135     0.83300
C268        C  0.07404071  0.24470152  0.03881209     0.83600
O269        O  0.10390045  0.27651103  0.04907110    -0.81300
C270        C  0.11590485  0.13128156  0.87997291     0.79900
N271        N  0.12866480  0.16736681  0.86823446    -0.78400
C272        C  0.15405681  0.20769776  0.87605164     0.82300
N273        N  0.16750289  0.21202501  0.89586678    -0.78400
C274        C  0.15702480  0.17624211  0.90753772     0.82400
N275        N  0.13011644  0.13558687  0.89979048    -0.80100
C276        C  0.21505322  0.18078424  0.95584360     0.79900
N277        N  0.20441976  0.20574913  0.96743313    -0.78400
C278        C  0.17764328  0.21930155  0.96027265     0.82300
N279        N  0.16133163  0.20821844  0.94099948    -0.78400
C280        C  0.17128795  0.18289177  0.92907255     0.82400
N281        N  0.19887344  0.16950139  0.93635039    -0.80100
C282        C  0.36740343  0.48592469  0.88109610     0.79900
N283        N  0.33150323  0.46307525  0.86921953    -0.78400
C284        C  0.29114901  0.44790641  0.87687529     0.82300
N285        N  0.28650778  0.45638194  0.89676157    -0.78400
C286        C  0.32213133  0.48126304  0.90864567     0.82400
N287        N  0.36290821  0.99527029  0.90100224    -0.80100
C288        C  0.31563189  0.03466582  0.95661798     0.79900
N289        N  0.29049419  0.49895745  0.96818128    -0.78400
C290        C  0.27758317  0.45857663  0.96113610     0.82300
N291        N  0.28959047  0.45344245  0.94204479    -0.78400
C292        C  0.31506906  0.48881680  0.93015781     0.82400
N293        N  0.32769569  0.02978601  0.93729531    -0.80100
C294        C  0.51189532  0.38226784  0.88086316     0.79900
N295        N  0.03498668  0.36938527  0.86911268    -0.78400
C296        C  0.05020412  0.34434830  0.87690093     0.82300
N297        N  0.04151155  0.33122377  0.89679408    -0.78400
C298        C  0.51630817  0.34175070  0.90853260     0.82400
N299        N  0.50231261  0.36839299  0.90074712    -0.80100
C300        C  0.46244236  0.28342830  0.95684214     0.79900
N301        N  0.46751545  0.29964522  0.93733915    -0.78400
C302        C  0.00859345  0.32742775  0.93010433     0.82300
N303        N  0.04385200  0.33739626  0.94207107    -0.78400
C304        C  0.03852988  0.32119337  0.96137739     0.82400
N305        N  0.49805815  0.29425074  0.96848650    -0.80100
O306        O  0.22483929  0.30142914  0.80378612    -0.78800
C307        C  0.16169279  0.24576763  0.86382016     0.82200
O308        O  0.07200957  0.27274672  0.80316492    -0.79900
O309        O  0.11179931  0.33580466  0.87307322    -0.81400
O310        O  0.25596814  0.42307440  0.84469030    -0.81200
O311        O  0.25423347  0.37358589  0.80195464    -0.79800
Zn312      Zn  0.16887501  0.28326842  0.82024243     1.55700
O313        O  0.22064201  0.38680090  0.87296591    -0.81200
Cd314      Cd  0.21593775  0.38828694  0.82001269     1.59700
Cd315      Cd  0.11036129  0.32955581  0.82010316     1.59600
O316        O  0.19751385  0.42717386  0.80355848    -0.81200
O317        O  0.16513141  0.33303925  0.83034503    -1.91700
Cd318      Cd  0.16500287  0.33351349  0.86141101     1.59900
O319        O  0.12535313  0.38365110  0.80264528    -0.81200
O320        O  0.16265635  0.27798125  0.87295429    -0.79800
C321        C  0.08038592  0.24286145  0.79843948     0.82700
C322        C  0.25507246  0.33887706  0.79802403     0.82300
O323        O  0.16445395  0.24443056  0.84427703    -0.78800
C324        C  0.25347409  0.41818643  0.86421693     0.83200
O325        O  0.11611394  0.24500903  0.80333283    -0.78900
C326        C  0.15967180  0.41941195  0.79836214     0.83300
C327        C  0.08011473  0.33657474  0.86431975     0.83600
O328        O  0.07509668  0.33376963  0.84480390    -0.81300
C329        C  0.44909646  0.15402019  0.71384986     0.79900
N330        N  0.46261768  0.13089618  0.70255014    -0.78400
C331        C  0.48656186  0.11513056  0.71103371     0.82300
N332        N  0.99786939  0.12329731  0.73113307    -0.78400
C333        C  0.98652035  0.14840503  0.74243548     0.82400
N334        N  0.46103090  0.16298503  0.73397466    -0.80100
C335        C  0.04638168  0.20117677  0.79019939     0.79900
N336        N  0.03753001  0.16539403  0.80122816    -0.78400
C337        C  0.00893401  0.12521298  0.79431383     0.82300
N338        N  0.49032181  0.12032552  0.77564322    -0.78400
C339        C  0.99935526  0.15578386  0.76410764     0.82400
N340        N  0.02763654  0.19664247  0.77134771    -0.80100
O341        O  0.03283361  0.44164002  0.63950836    -0.78800
C342        C  0.08893769  0.08487725  0.63318757     0.82200
O343        O  0.05521184  0.00420563  0.70854100    -0.79900
O344        O  0.49834766  0.09002627  0.67940879    -0.81400
O345        O  0.40600576  0.46683888  0.63818222    -0.81200
O346        O  0.46076757  0.41178357  0.63727973    -0.79800
Zn347      Zn  0.04986946  0.99735303  0.65581290     1.55700
O348        O  0.44862232  0.03909046  0.63747402    -0.81200
Cd349      Cd  0.44525474  0.44959420  0.65507046     1.59700
Cd350      Cd  0.99890854  0.00044871  0.69684615     1.59600
O351        O  0.41029683  0.40942333  0.67943332    -0.81200
O352        O  0.99983059  0.00048873  0.66572033    -1.91700
Cd353      Cd  0.50271389  0.05465028  0.65498217     1.59900
O354        O  0.44561435  0.44381453  0.70808822    -0.81200
O355        O  0.05886126  0.09304184  0.63771025    -0.79800
C356        C  0.08756974  0.00563424  0.69932133     0.82700
C357        C  0.99567600  0.41133675  0.63352512     0.82300
O358        O  0.08739599  0.04969958  0.63863153    -0.78800
C359        C  0.41332476  0.50452313  0.63295592     0.83200
O360        O  0.08865834  0.00261696  0.67979676    -0.78900
C361        C  0.41458696  0.41117710  0.69896862     0.83300
C362        C  0.49490486  0.08512980  0.69891129     0.83600
O363        O  0.49544838  0.05354472  0.70796247    -0.81300
C364        C  0.29629648  0.34492774  0.79003293     0.79900
N365        N  0.33194992  0.37137652  0.80124345    -0.78400
C366        C  0.37215504  0.38330636  0.79439248     0.82300
N367        N  0.37726367  0.37025606  0.77559400    -0.78400
C368        C  0.34196896  0.34418031  0.76386016     0.82400
N369        N  0.30102936  0.33155802  0.77098392    -0.80100
C370        C  0.34480668  0.29610449  0.71360546     0.79900
N371        N  0.36857633  0.33291408  0.70245937    -0.78400
C372        C  0.38438212  0.37265427  0.71102310     0.82300
N373        N  0.37554399  0.37564197  0.73104595    -0.78400
C374        C  0.34978336  0.33900700  0.74218533     0.82400
N375        N  0.33524238  0.29892949  0.73364692    -0.80100
C376        C  0.15305067  0.45419839  0.79035261     0.79900
N377        N  0.12623218  0.46295927  0.80144580    -0.78400
C378        C  0.11436819  0.99129990  0.79462102     0.82300
N379        N  0.12777966  0.00984023  0.77589165    -0.78400
C380        C  0.15435183  0.00111024  0.76428961     0.82400
N381        N  0.16700204  0.47287529  0.77145602    -0.80100
C382        C  0.12623244  0.51409083  0.71126008     0.79900
N383        N  0.16595499  0.03759427  0.70260413    -0.78400
C384        C  0.20275252  0.05077235  0.71378994     0.82300
N385        N  0.19981477  0.03895698  0.73395036    -0.78400
C386        C  0.15975268  0.51399406  0.74257690     0.82400
N387        N  0.12325064  0.50295804  0.73137970    -0.80100
O388        O  0.08730840  0.03232342  0.81109885    -0.78800
C389        C  0.00330207  0.08783181  0.80594736     0.82200
O390        O  0.05334363  0.05895891  0.88136625    -0.79900
O391        O  0.41084339  0.50192332  0.85223419    -0.81400
O392        O  0.44025945  0.40934099  0.81052089    -0.81200
O393        O  0.04777886  0.45999724  0.81148119    -0.79800
Zn394      Zn  0.05097149  0.04919424  0.82847243     1.55700
O395        O  0.40828360  0.44948643  0.81172556    -0.81200
Cd396      Cd  0.99431678  0.44639120  0.82847788     1.59700
Cd397      Cd  0.99861026  0.99996049  0.87101132     1.59600
O398        O  0.49583580  0.40976220  0.85200278    -0.81200
O399        O  0.99891841  0.00048079  0.83962249    -1.91700
Cd400      Cd  0.44858724  0.00353874  0.82855253     1.59900
O401        O  0.50303844  0.44535816  0.88147670    -0.81200
O402        O  0.46539230  0.05743730  0.81055938    -0.79800
C403        C  0.08405030  0.08928985  0.87078219     0.82700
C404        C  0.08137320  0.99512229  0.80610782     0.82300
O405        O  0.03732125  0.08768652  0.81174533    -0.78800
C406        C  0.40919673  0.41578415  0.80598295     0.83200
O407        O  0.08608502  0.08694885  0.85134318    -0.78900
C408        C  0.50139668  0.41352038  0.87137135     0.83300
C409        C  0.40923523  0.49661593  0.87161649     0.83600
O410        O  0.43964552  0.49538100  0.88169818    -0.81300
O411        O  0.29016890  0.07803472  0.52829691    -0.78800
C412        C  0.24878618  0.17395197  0.53349945     0.82200
O413        O  0.27789110  0.11067048  0.45769961    -0.79900
O414        O  0.33586701  0.25797019  0.48774981    -0.81400
O415        O  0.42229581  0.21549819  0.52884927    -0.81200
O416        O  0.36193980  0.10637482  0.52960440    -0.79800
Zn417      Zn  0.27794492  0.11787321  0.51111259     1.55700
O418        O  0.39253226  0.25776980  0.52958667    -0.81200
Cd419      Cd  0.38095568  0.16153183  0.51172445     1.59700
Cd420      Cd  0.33221755  0.16768061  0.46914523     1.59600
O421        O  0.41815824  0.16250441  0.48751389    -0.81200
O422        O  0.33136854  0.16646053  0.50064194    -1.91700
Cd423      Cd  0.33730612  0.22141915  0.51174889     1.59900
O424        O  0.38933765  0.17006455  0.45825501    -0.81200
O425        O  0.28374573  0.20862128  0.52887353    -0.79800
C426        C  0.24680286  0.07982042  0.46775974     0.82700
C427        C  0.32358446  0.07661654  0.53418578     0.82300
O428        O  0.24151544  0.13645271  0.52796038    -0.78800
C429        C  0.42277197  0.25011131  0.53437050     0.83200
O430        O  0.24395233  0.08098462  0.48727000    -0.78900
C431        C  0.41930319  0.16775925  0.46808352     0.83300
C432        C  0.33113484  0.25441016  0.46828378     0.83600
O433        O  0.32980952  0.22267800  0.45831618    -0.81300
C434        C  0.17666833  0.21600067  0.54741143     0.79900
N435        N  0.20169827  0.20438649  0.53646896    -0.78400
C436        C  0.21582316  0.17885775  0.54468643     0.82300
N437        N  0.20525027  0.16504541  0.56433672    -0.78400
C438        C  0.17974785  0.17594521  0.57557511     0.82400
N439        N  0.16596179  0.20230972  0.56727230    -0.80100
C440        C  0.20617394  0.15515286  0.62710734     0.79900
N441        N  0.16646716  0.12730882  0.63471351    -0.78400
C442        C  0.13001482  0.11842057  0.62428525     0.82300
N443        N  0.13327200  0.13631942  0.60531147    -0.78400
C444        C  0.17361215  0.16391506  0.59737810     0.82400
N445        N  0.20980363  0.17306237  0.60835501    -0.80100
C446        C  0.03736742  0.32228925  0.54775356     0.79900
N447        N  0.00043964  0.29667239  0.53710125    -0.78400
C448        C  0.46102353  0.28264428  0.54554595     0.82300
N449        N  0.45830211  0.29412634  0.56510467    -0.78400
C450        C  0.49511765  0.32022321  0.57604228     0.82400
N451        N  0.03501036  0.33375643  0.56752545    -0.80100
C452        C  0.49017377  0.37071926  0.62508044     0.79900
N453        N  0.00318407  0.36724600  0.60575064    -0.78400
C454        C  0.49016409  0.32678646  0.59787801     0.82300
N455        N  0.46389008  0.29070760  0.60910813    -0.78400
C456        C  0.45104513  0.29451607  0.62815946     0.82400
N457        N  0.46347714  0.33432258  0.63580251    -0.80100
C458        C  0.31667038  0.03810642  0.54556795     0.79900
N459        N  0.29096577  0.99854303  0.53719700    -0.78400
C460        C  0.27983026  0.46165460  0.54788115     0.82300
N461        N  0.29410261  0.46426326  0.56759993    -0.78400
C462        C  0.32066711  0.00427728  0.57604433     0.82400
N463        N  0.33134346  0.04099264  0.56504997    -0.80100
C464        C  0.37853327  0.51063397  0.62453179     0.79900
N465        N  0.36903622  0.03724720  0.63539697    -0.78400
C466        C  0.34098202  0.04906215  0.62812205     0.82300
N467        N  0.32349540  0.03579722  0.60921770    -0.78400
C468        C  0.33301803  0.50953030  0.59782043     0.82400
N469        N  0.36100040  0.49695730  0.60539471    -0.80100
O470        O  0.24410117  0.12697731  0.64443473    -0.78800
C471        C  0.33706788  0.08252849  0.63913883     0.82200
O472        O  0.27479580  0.11273550  0.71403652    -0.79900
O473        O  0.42197347  0.16874738  0.68447941    -0.81400
O474        O  0.38373188  0.25738574  0.64441585    -0.81200
O475        O  0.27511112  0.19901944  0.64232305    -0.79800
Zn476      Zn  0.28279842  0.11336169  0.66116089     1.55700
O477        O  0.42376521  0.22526363  0.64335128    -0.81200
Cd478      Cd  0.32886461  0.21633862  0.66056909     1.59700
Cd479      Cd  0.33249283  0.16674515  0.70301948     1.59600
O480        O  0.32943115  0.25386007  0.68424586    -0.81200
O481        O  0.33176294  0.16592455  0.67174927    -1.91700
Cd482      Cd  0.38588827  0.17047787  0.66079797     1.59900
O483        O  0.33624885  0.22476519  0.71355972    -0.81200
O484        O  0.37218191  0.11670443  0.64401114    -0.79800
C485        C  0.24404086  0.08167708  0.70388584     0.82700
C486        C  0.24418752  0.16095928  0.63826454     0.82300
O487        O  0.29987461  0.07647569  0.64422509    -0.78800
C488        C  0.41774083  0.25672514  0.63903802     0.83200
O489        O  0.24540803  0.07877623  0.68442831    -0.78900
C490        C  0.33461320  0.25504139  0.70363561     0.83300
C491        C  0.41826448  0.16417216  0.70388808     0.83600
O492        O  0.38673508  0.16326603  0.71382682    -0.81300
O493        O  0.25564801  0.86503749  0.47776533    -0.78800
C494        C  0.17246839  0.92368938  0.47184676     0.82200
O495        O  0.21850513  0.88957680  0.54783520    -0.79900
O496        O  0.07900907  0.83794713  0.51820804    -0.81400
O497        O  0.10561376  0.74297470  0.47630584    -0.81200
O498        O  0.21445835  0.79274721  0.47733146    -0.79800
Zn499      Zn  0.21877737  0.88297728  0.49457627     1.55700
O500        O  0.07454778  0.78405443  0.47751267    -0.81200
Cd501      Cd  0.16054154  0.77965070  0.49409807     1.59700
Cd502      Cd  0.16487065  0.83279729  0.53641773     1.59600
O503        O  0.16169709  0.74303773  0.51796290    -0.81200
O504        O  0.16579468  0.83422620  0.50506389    -1.91700
Cd505      Cd  0.11593854  0.83859357  0.49412317     1.59900
O506        O  0.16760974  0.77840418  0.54732939    -0.81200
O507        O  0.13425061  0.89338662  0.47621007    -0.79800
C508        C  0.24939104  0.92056829  0.53780070     0.82700
C509        C  0.24905596  0.82761107  0.47255871     0.82300
O510        O  0.20613479  0.92275769  0.47771564    -0.78800
C511        C  0.07467481  0.74980497  0.47190663     0.83200
O512        O  0.25245848  0.91966460  0.51831487    -0.78900
C513        C  0.16639013  0.74674127  0.53740177     0.83300
C514        C  0.07803988  0.83240983  0.53758680     0.83600
O515        O  0.10799509  0.82999953  0.54731083    -0.81300
C516        C  0.29196836  0.84514076  0.37831330     0.79900
N517        N  0.33174137  0.87145566  0.37028420    -0.78400
C518        C  0.36835428  0.88226056  0.38113597     0.82300
N519        N  0.36510312  0.86693430  0.40071239    -0.78400
C520        C  0.32481507  0.83964323  0.40878143     0.82400
N521        N  0.28851116  0.82945197  0.39760695    -0.80100
C522        C  0.32093951  0.78549216  0.45834955     0.79900
N523        N  0.33209331  0.80007090  0.43859592    -0.78400
C524        C  0.31881228  0.82716728  0.43056814     0.82300
N525        N  0.29331566  0.83779860  0.44193512    -0.78400
C526        C  0.28222588  0.82306598  0.46142119     0.82400
N527        N  0.29587630  0.79691833  0.46938506    -0.80100
C528        C  0.00908152  0.62742384  0.38136541     0.79900
N529        N  0.49704345  0.63068565  0.40095565    -0.78400
C530        C  0.00978531  0.67107749  0.40888006     0.82300
N531        N  0.03555437  0.70732904  0.39759236    -0.78400
C532        C  0.04768682  0.70378591  0.37832571     0.82400
N533        N  0.03453994  0.66401153  0.37042907    -0.80100
C534        C  0.46032363  0.67774561  0.45807829     0.79900
N535        N  0.46333688  0.66501602  0.43859965    -0.78400
C536        C  0.00359742  0.67765451  0.43059975     0.82300
N537        N  0.03996355  0.70406864  0.44168987    -0.78400
C538        C  0.03662296  0.71692910  0.46083738     0.82400
N539        N  0.49698451  0.70381030  0.46881594    -0.80100
C540        C  0.17883154  0.96198618  0.46053246     0.79900
N541        N  0.16306847  0.95855678  0.44127254    -0.78400
C542        C  0.17323608  0.99485790  0.43010302     0.82300
N543        N  0.20055474  0.53522620  0.43818786    -0.78400
C544        C  0.21589389  0.53843521  0.45778629     0.82400
N545        N  0.20511329  0.00175609  0.46859444    -0.80100
C546        C  0.11652068  0.48860417  0.38102901     0.79900
N547        N  0.13239409  0.50103645  0.40053082    -0.78400
C548        C  0.16025972  0.48851492  0.40835111     0.82300
N549        N  0.17029561  0.96244348  0.39704612    -0.78400
C550        C  0.15416877  0.95000811  0.37783567     0.82400
N551        N  0.12735630  0.96299619  0.37008035    -0.80100
O552        O  0.19575512  0.92300813  0.36146324    -0.78800
C553        C  0.25375779  0.83900852  0.36698380     0.82200
O554        O  0.22018106  0.88596112  0.29121955    -0.79900
O555        O  0.16648595  0.74540430  0.32046488    -0.81400
O556        O  0.07321447  0.77266267  0.36266798    -0.81200
O557        O  0.12349363  0.88201508  0.36194638    -0.79800
Zn558      Zn  0.21339623  0.88601762  0.34451699     1.55700
O559        O  0.11449206  0.74182910  0.36151649    -0.81200
Cd560      Cd  0.11001467  0.82797233  0.34501008     1.59700
Cd561      Cd  0.16321810  0.83239574  0.30254886     1.59600
O562        O  0.07368306  0.82940850  0.32104568    -0.81200
O563        O  0.16446702  0.83312687  0.33393258    -1.91700
Cd564      Cd  0.16851771  0.78290291  0.34464216     1.59900
O565        O  0.10919390  0.83559761  0.29169479    -0.81200
O566        O  0.22359380  0.80087445  0.36231886    -0.79800
C567        C  0.25119520  0.91682020  0.30127022     0.82700
C568        C  0.15845116  0.91656273  0.36673583     0.82300
O569        O  0.25281587  0.87285481  0.36138816    -0.78800
C570        C  0.08022215  0.74182085  0.36711543     0.83200
O571        O  0.25025570  0.91987638  0.32076846    -0.78900
C572        C  0.07749846  0.83424282  0.30160578     0.83300
C573        C  0.16102622  0.74460496  0.30108173     0.83600
O574        O  0.15949440  0.77511597  0.29140925    -0.81300
C575        C  0.36872245  0.98330540  0.29358638     0.79900
N576        N  0.32910605  0.95836235  0.30200967    -0.78400
C577        C  0.29237402  0.94707140  0.29118671     0.82300
N578        N  0.29524222  0.96052345  0.27128630    -0.78400
C579        C  0.33535671  0.98624210  0.26276655     0.82400
N580        N  0.37188486  0.49701929  0.27390244    -0.80100
C581        C  0.34189769  0.54465269  0.21451171     0.79900
N582        N  0.36848117  0.53537183  0.20351764    -0.78400
C583        C  0.38035930  0.00720592  0.21059709     0.82300
N584        N  0.36717904  0.98942899  0.22949156    -0.78400
C585        C  0.34081386  0.99870267  0.24098640     0.82400
N586        N  0.32818439  0.52672485  0.23355164    -0.80100
O587        O  0.45812406  0.91060668  0.19370407    -0.78800
C588        C  0.41352600  0.00325590  0.19924057     0.82200
O589        O  0.44232668  0.93997040  0.12383963    -0.81100
O590        O  0.49872352  0.58821196  0.15323731    -0.81400
O591        O  0.08742178  0.54985485  0.19348761    -0.81200
O592        O  0.03007043  0.94148390  0.19546380    -0.79800
Zn593      Zn  0.44435925  0.94918535  0.17691753     1.55700
O594        O  0.05515783  0.58975599  0.19465027    -0.81200
Cd595      Cd  0.04692817  0.99513056  0.17704759     1.59700
Cd596      Cd  0.49704590  0.99850757  0.13443093     1.59600
O597        O  0.08456629  0.49608445  0.15335096    -0.81200
O598        O  0.49650246  0.99803248  0.16585427    -1.91700
Cd599      Cd  0.50074690  0.55211218  0.17689267     1.59900
O600        O  0.05578022  0.50259358  0.12386387    -0.81200
O601        O  0.44719376  0.53838192  0.19390488    -0.79800
C602        C  0.41152265  0.90959679  0.13433554     0.82700
C603        C  0.49212356  0.91074470  0.19983086     0.82300
O604        O  0.40767128  0.96604825  0.19425969    -0.78800
C605        C  0.08648616  0.58363444  0.19909839     0.83200
O606        O  0.40946799  0.91169482  0.15380221    -0.78900
C607        C  0.08610249  0.50121570  0.13394493     0.83300
C608        C  0.49372442  0.58455104  0.13383741     0.83600
O609        O  0.49281294  0.55301725  0.12378649    -0.81300
C610        C  0.15031854  0.70371990  0.29084333     0.79900
N611        N  0.12516397  0.66685106  0.30163201    -0.78400
C612        C  0.11120161  0.62730948  0.29328549     0.82300
N613        N  0.12219732  0.62436233  0.27365868    -0.78400
C614        C  0.14781265  0.66110627  0.26257152     0.82400
N615        N  0.16141231  0.70113762  0.27102335    -0.80100
C616        C  0.19984247  0.65499488  0.21432011     0.79900
N617        N  0.19567079  0.66846007  0.23342685    -0.78400
C618        C  0.15499600  0.65591581  0.24081966     0.82300
N619        N  0.11933233  0.62974674  0.22928673    -0.78400
C620        C  0.12386086  0.61656251  0.21040754     0.82400
N621        N  0.16388796  0.62846429  0.20329617    -0.80100
C622        C  0.04680195  0.84448389  0.29156298     0.79900
N623        N  0.03486185  0.86914636  0.30256899    -0.78400
C624        C  0.50940794  0.88331451  0.29435544     0.82300
N625        N  0.49594747  0.87316767  0.27462128    -0.78400
C626        C  0.50716072  0.84796783  0.26331574     0.82400
N627        N  0.03344551  0.83411158  0.27164014    -0.80100
C628        C  0.49485197  0.84139253  0.24153332     0.79900
N629        N  0.46706494  0.80080324  0.23388999    -0.78400
C630        C  0.44914963  0.79691124  0.21488070     0.82300
N631        N  0.45828708  0.83304715  0.20407724    -0.78400
C632        C  0.48635806  0.87305000  0.21137020     0.82400
N633        N  0.00417908  0.87729674  0.23022218    -0.80100
O634        O  0.40853397  0.95669524  0.31079212    -0.78800
C635        C  0.50432578  0.91594741  0.30570905     0.82200
O636        O  0.44059928  0.94416726  0.38146132    -0.79900
O637        O  0.08869537  0.50345168  0.35174044    -0.81400
O638        O  0.04464294  0.58837596  0.31030053    -0.81200
O639        O  0.43626408  0.52844116  0.31007080    -0.79800
Zn640      Zn  0.44816177  0.94460171  0.32810888     1.55700
O641        O  0.08752564  0.55934016  0.30969121    -0.81200
Cd642      Cd  0.49146443  0.54733825  0.32778685     1.59700
Cd643      Cd  0.49791022  0.99857703  0.37028838     1.59600
O644        O  0.99325965  0.58496862  0.35196925    -0.81200
O645        O  0.49665222  0.99788979  0.33880301    -1.91700
Cd646      Cd  0.05173194  0.00426162  0.32777183     1.59900
O647        O  0.00079864  0.55605101  0.38120117    -0.81200
O648        O  0.03891965  0.95075113  0.31060020    -0.79800
C649        C  0.40978464  0.91322444  0.37128676     0.82700
C650        C  0.40693090  0.99014234  0.30513436     0.82300
O651        O  0.46678002  0.90849695  0.31116737    -0.78800
C652        C  0.07929765  0.58912966  0.30471462     0.83200
O653        O  0.41108891  0.91048087  0.35178358    -0.78900
C654        C  0.99875773  0.58620738  0.37138231     0.83300
C655        C  0.08507361  0.49839211  0.37118893     0.83600
O656        O  0.05297987  0.49624891  0.38114591    -0.81300
O657        O  0.38854741  0.63390991  0.02602645    -0.78800
C658        C  0.24774905  0.57585429  0.03190023     0.82200
O659        O  0.32651712  0.60736854  0.95541687    -0.79900
O660        O  0.24054604  0.66245134  0.98472738    -0.81400
O661        O  0.36069258  0.75482993  0.02775124    -0.81200
O662        O  0.41955898  0.70610795  0.02656538    -0.79800
Zn663      Zn  0.33434044  0.61610941  0.00882525     1.55700
O664        O  0.28858375  0.71307987  0.02654868    -0.81200
Cd665      Cd  0.37934202  0.71923282  0.00930025     1.59700
Cd666      Cd  0.33113910  0.66591414  0.96639798     1.59600
O667        O  0.41789900  0.75617450  0.98556709    -0.81200
O668        O  0.33026896  0.66466735  0.99794106    -1.91700
Cd669      Cd  0.27584422  0.65999554  0.00886346     1.59900
O670        O  0.39030251  0.72040140  0.95602216    -0.81200
O671        O  0.23907916  0.60522694  0.02678425    -0.79800
C672        C  0.32662762  0.57683708  0.96586120     0.82700
C673        C  0.41899167  0.67126515  0.03158650     0.82300
O674        O  0.28248429  0.57697491  0.02615491    -0.78800
C675        C  0.32277958  0.74703400  0.03261928     0.83200
O676        O  0.33110163  0.57894611  0.98533498    -0.78900
C677        C  0.42023658  0.75234666  0.96618777     0.83300
C678        C  0.24528021  0.66901393  0.96539652     0.83600
O679        O  0.27743343  0.67100063  0.95551440    -0.81300
C680        C  0.27935946  0.81652440  0.04932080     0.79900
N681        N  0.28975808  0.79129173  0.03780258    -0.78400
C682        C  0.31711964  0.77836702  0.04483593     0.82300
N683        N  0.33430893  0.79042752  0.06391917    -0.78400
C684        C  0.32458347  0.81604268  0.07577797     0.82400
N685        N  0.29636591  0.82873305  0.06862723    -0.80100
C686        C  0.37970539  0.86774794  0.12500201     0.79900
N687        N  0.36701392  0.83159743  0.13665590    -0.78400
C688        C  0.34191823  0.79134338  0.12873889     0.82300
N689        N  0.32861691  0.78709953  0.10891934    -0.78400
C690        C  0.33901419  0.82288855  0.09729751     0.82400
N691        N  0.36569585  0.86355841  0.10512887    -0.80100
C692        C  0.17868931  0.96246170  0.04867030     0.79900
N693        N  0.20384614  0.99815694  0.03709489    -0.78400
C694        C  0.21676415  0.53856294  0.04412010     0.82300
N695        N  0.20478318  0.54373044  0.06320205    -0.78400
C696        C  0.17934216  0.50840377  0.07511431     0.82400
N697        N  0.16667155  0.96739788  0.06800085    -0.80100
C698        C  0.12779106  0.51171214  0.12436686     0.79900
N699        N  0.13193452  0.00199600  0.10447163    -0.78400
C700        C  0.17259512  0.51615320  0.09663890     0.82300
N701        N  0.20841644  0.54161181  0.10829268    -0.78400
C702        C  0.20413209  0.55049849  0.12815011     0.82400
N703        N  0.16391340  0.53513016  0.13602360    -0.80100
C704        C  0.03187415  0.71350974  0.04806161     0.79900
N705        N  0.49627790  0.70279930  0.03642736    -0.78400
C706        C  0.45582595  0.67571155  0.04350548     0.82300
N707        N  0.45051726  0.65924834  0.06274765    -0.78400
C708        C  0.48578758  0.66912621  0.07467696     0.82400
N709        N  0.02682562  0.69707570  0.06749870    -0.80100
C710        C  0.48311496  0.61555221  0.12417540     0.79900
N711        N  0.46008934  0.62867821  0.13581962    -0.78400
C712        C  0.44468409  0.65340013  0.12784071     0.82300
N713        N  0.45307158  0.66592521  0.10788160    -0.78400
C714        C  0.47814573  0.65511086  0.09624410     0.82400
N715        N  0.99239484  0.62882971  0.10420592    -0.80100
O716        O  0.27128932  0.69803445  0.20060755    -0.78800
C717        C  0.41531285  0.75552879  0.20633753     0.82200
O718        O  0.33318510  0.72103652  0.13167903    -0.79900
O719        O  0.42017476  0.66465373  0.15982278    -0.81400
O720        O  0.29775202  0.57201143  0.20130435    -0.81200
O721        O  0.24135046  0.62582456  0.20235508    -0.79800
Zn722      Zn  0.32717978  0.71575399  0.18433783     1.55700
O723        O  0.36998667  0.61492590  0.20182912    -0.81200
Cd724      Cd  0.27977436  0.61091325  0.18463105     1.59700
Cd725      Cd  0.33049245  0.66533089  0.14314564     1.59600
O726        O  0.23986236  0.57579074  0.16010634    -0.81200
O727        O  0.33059412  0.66590782  0.17420095    -1.91700
Cd728      Cd  0.38516123  0.66910125  0.18446365     1.59900
O729        O  0.27453204  0.61207643  0.13171803    -0.81200
O730        O  0.42364953  0.72567011  0.20150868    -0.79800
C731        C  0.33437066  0.75328747  0.14087978     0.82700
C732        C  0.24078864  0.66066758  0.20625442     0.82300
O733        O  0.37971531  0.75359318  0.20139742    -0.78800
C734        C  0.33556250  0.57945663  0.20632110     0.83200
O735        O  0.33180579  0.75464516  0.16042078    -0.78900
C736        C  0.24197888  0.58058767  0.14058994     0.83300
C737        C  0.41501328  0.66159098  0.14032750     0.83600
O738        O  0.38341674  0.66247899  0.13153747    -0.81300
O739        O  0.21179459  0.92013626  0.97906070    -0.78800
C740        C  0.07535721  0.82576231  0.97338297     0.82200
O741        O  0.16766855  0.88966358  0.04984056    -0.79900
O742        O  0.07644771  0.74106195  0.01943139    -0.81400
O743        O  0.20599401  0.78445288  0.97860347    -0.81200
O744        O  0.25531786  0.89201870  0.97853791    -0.79800
Zn745      Zn  0.15983945  0.88101710  0.99638387     1.55700
O746        O  0.13392001  0.74243669  0.97746852    -0.81200
Cd747      Cd  0.21844156  0.83724159  0.99638388     1.59700
Cd748      Cd  0.16304843  0.83108739  0.03883155     1.59600
O749        O  0.25360783  0.83459659  0.02048325    -0.81200
O750        O  0.16396969  0.83249162  0.00727470    -1.91700
Cd751      Cd  0.11506819  0.77798426  0.99579507     1.59900
O752        O  0.21678658  0.82601668  0.04971683    -0.81200
O753        O  0.07490878  0.79097208  0.97839054    -0.79800
C754        C  0.16758856  0.92024092  0.03941287     0.82700
C755        C  0.24658355  0.92130373  0.97335783     0.82300
O756        O  0.10562733  0.86313182  0.97906089    -0.78800
C757        C  0.17187006  0.75043187  0.97255647     0.83200
O758        O  0.16308011  0.91815371  0.01993454    -0.78900
C759        C  0.24894052  0.82805852  0.03981041     0.83300
C760        C  0.07404110  0.74470002  0.03881108     0.83600
O761        O  0.10390024  0.77651046  0.04906990    -0.81300
C762        C  0.11591296  0.63128482  0.87997115     0.79900
N763        N  0.12867000  0.66736976  0.86823281    -0.78400
C764        C  0.15405942  0.70770107  0.87605017     0.82300
N765        N  0.16750580  0.71202901  0.89586528    -0.78400
C766        C  0.15703075  0.67624653  0.90753603     0.82400
N767        N  0.13012492  0.63559089  0.89978860    -0.80100
C768        C  0.21505412  0.68078467  0.95584311     0.79900
N769        N  0.20442034  0.70574947  0.96743250    -0.78400
C770        C  0.17764590  0.71930373  0.96027130     0.82300
N771        N  0.16133677  0.70822288  0.94099769    -0.78400
C772        C  0.17129332  0.68289620  0.92907089     0.82400
N773        N  0.19887668  0.66950376  0.93634947    -0.80100
C774        C  0.36739575  0.98592672  0.88109391     0.79900
N775        N  0.33149519  0.96307764  0.86921761    -0.78400
C776        C  0.29114137  0.94790874  0.87687375     0.82300
N777        N  0.28650083  0.95638392  0.89676024    -0.78400
C778        C  0.32212500  0.98126483  0.90864400     0.82400
N779        N  0.36291506  0.49526869  0.90100428    -0.80100
C780        C  0.31563109  0.53466473  0.95661806     0.79900
N781        N  0.29049607  0.99895838  0.96818134    -0.78400
C782        C  0.27758305  0.95857761  0.96113555     0.82300
N783        N  0.28958688  0.95344349  0.94204343    -0.78400
C784        C  0.31506443  0.98881800  0.93015641     0.82400
N785        N  0.32769804  0.52978485  0.93729610    -0.80100
C786        C  0.51188806  0.88226682  0.88086343     0.79900
N787        N  0.03497979  0.86938510  0.86911257    -0.78400
C788        C  0.05019913  0.84434945  0.87690063     0.82300
N789        N  0.04150842  0.83122575  0.89679388    -0.78400
C790        C  0.51630499  0.84175188  0.90853285     0.82400
N791        N  0.50230713  0.86839251  0.90074757    -0.80100
C792        C  0.46244141  0.78342629  0.95684192     0.79900
N793        N  0.46751371  0.79964535  0.93733946    -0.78400
C794        C  0.00859147  0.82742820  0.93010446     0.82300
N795        N  0.04385045  0.83739512  0.94207060    -0.78400
C796        C  0.03852901  0.82118998  0.96137643     0.82400
N797        N  0.49805752  0.79424690  0.96848567    -0.80100
O798        O  0.22483282  0.80143109  0.80378308    -0.78800
C799        C  0.16169214  0.74577004  0.86381878     0.82200
O800        O  0.07200197  0.77274343  0.80316567    -0.79900
O801        O  0.11179337  0.83580444  0.87307238    -0.81400
O802        O  0.25596011  0.92307616  0.84468904    -0.81200
O803        O  0.25422763  0.87358805  0.80195337    -0.79800
Zn804      Zn  0.16887046  0.78326983  0.82024105     1.55700
O805        O  0.22063504  0.88680198  0.87296470    -0.81200
Cd806      Cd  0.21593073  0.88828795  0.82001146     1.59700
Cd807      Cd  0.11035423  0.82955462  0.82010253     1.59600
O808        O  0.19750479  0.92717336  0.80355754    -0.81200
O809        O  0.16512533  0.83303969  0.83034385    -1.91700
Cd810      Cd  0.16499682  0.83351360  0.86140980     1.59900
O811        O  0.12534433  0.88364862  0.80264398    -0.81200
O812        O  0.16265299  0.77798233  0.87295299    -0.79800
C813        C  0.08037975  0.74285919  0.79844007     0.82700
C814        C  0.25506618  0.83887936  0.79802158     0.82300
O815        O  0.16445340  0.74443340  0.84427564    -0.78800
C816        C  0.25346634  0.91818818  0.86421568     0.83200
O817        O  0.11610900  0.74500880  0.80333257    -0.78900
C818        C  0.15966239  0.91941022  0.79836109     0.83300
C819        C  0.08010923  0.83657571  0.86431909     0.83600
O820        O  0.07509089  0.83377070  0.84480328    -0.81300
C821        C  0.44910933  0.65401952  0.71384731     0.79900
N822        N  0.46263110  0.63089530  0.70254808    -0.78400
C823        C  0.48657297  0.61512785  0.71103257     0.82300
N824        N  0.99787727  0.62329277  0.73113240    -0.78400
C825        C  0.98652717  0.64840031  0.74243429     0.82400
N826        N  0.46104056  0.66298233  0.73397245    -0.80100
C827        C  0.04637679  0.70117372  0.79020028     0.79900
N828        N  0.03752648  0.66539175  0.80122937    -0.78400
C829        C  0.00893527  0.62520987  0.79431414     0.82300
N830        N  0.49032694  0.62032107  0.77564245    -0.78400
C831        C  0.99935909  0.65577878  0.76410673     0.82400
N832        N  0.02763549  0.69663801  0.77134756    -0.80100
O833        O  0.03282457  0.94164378  0.63951002    -0.78800
C834        C  0.08894999  0.58487488  0.63318705     0.82200
O835        O  0.05522785  0.50420416  0.70853909    -0.79900
O836        O  0.49835762  0.59002246  0.67940776    -0.81400
O837        O  0.40599416  0.96684022  0.63818222    -0.81200
O838        O  0.46075895  0.91178585  0.63727769    -0.79800
Zn839      Zn  0.04988149  0.49734972  0.65581138     1.55700
O840        O  0.44863595  0.53908854  0.63747198    -0.81200
Cd841      Cd  0.44524337  0.94959432  0.65506952     1.59700
Cd842      Cd  0.99892462  0.50044875  0.69684555     1.59600
O843        O  0.41028523  0.90942026  0.67943161    -0.81200
O844        O  0.99984394  0.50048729  0.66571975    -1.91700
Cd845      Cd  0.50272621  0.55464783  0.65498126     1.59900
O846        O  0.44559821  0.94381275  0.70808720    -0.81200
O847        O  0.05887436  0.59304020  0.63771043    -0.79800
C848        C  0.08758437  0.50563050  0.69931919     0.82700
C849        C  0.99566881  0.91134054  0.63352475     0.82300
O850        O  0.08740762  0.54969640  0.63863005    -0.78800
C851        C  0.41331190  0.00452482  0.63295733     0.83200
O852        O  0.08867188  0.50261220  0.67979456    -0.78900
C853        C  0.41457355  0.91117396  0.69896700     0.83300
C854        C  0.49491747  0.58512775  0.69891039     0.83600
O855        O  0.49546519  0.55354513  0.70796187    -0.81300
C856        C  0.29629001  0.84493004  0.79003012     0.79900
N857        N  0.33194383  0.87137985  0.80124011    -0.78400
C858        C  0.37214850  0.88330696  0.79438970     0.82300
N859        N  0.37725660  0.87025249  0.77559207    -0.78400
C860        C  0.34196138  0.84417526  0.76385865     0.82400
N861        N  0.30102214  0.83155594  0.77098200    -0.80100
C862        C  0.34480647  0.79609960  0.71360457     0.79900
N863        N  0.36857121  0.83290970  0.70245800    -0.78400
C864        C  0.38437089  0.87264966  0.71102120     0.82300
N865        N  0.37553147  0.87563649  0.73104387    -0.78400
C866        C  0.34977564  0.83900109  0.74218379     0.82400
N867        N  0.33524084  0.79892380  0.73364601    -0.80100
C868        C  0.15304011  0.95419642  0.79035230     0.79900
N869        N  0.12622238  0.96295682  0.80144644    -0.78400
C870        C  0.11437786  0.49130157  0.79461937     0.82300
N871        N  0.12779049  0.50984097  0.77588978    -0.78400
C872        C  0.15436385  0.50111069  0.76428872     0.82400
N873        N  0.16699043  0.97287438  0.77145584    -0.80100
C874        C  0.12621805  0.01409560  0.71126231     0.79900
N875        N  0.16596959  0.53758886  0.70260213    -0.78400
C876        C  0.20276687  0.55076856  0.71378838     0.82300
N877        N  0.19982846  0.53895520  0.73394925    -0.78400
C878        C  0.15973936  0.01399534  0.74257820     0.82400
N879        N  0.12323684  0.00296072  0.73138156    -0.80100
O880        O  0.08731738  0.53232548  0.81109688    -0.78800
C881        C  0.00330585  0.58782994  0.80594776     0.82200
O882        O  0.05335374  0.55896143  0.88136513    -0.79900
O883        O  0.41083547  0.00192321  0.85223204    -0.81400
O884        O  0.44025100  0.90933944  0.81052007    -0.81200
O885        O  0.04776968  0.95999505  0.81148297    -0.79800
Zn886      Zn  0.05097970  0.54919532  0.82847123     1.55700
O887        O  0.40827830  0.94948802  0.81172210    -0.81200
Cd888      Cd  0.99430660  0.94638874  0.82847849     1.59700
Cd889      Cd  0.99862005  0.49996233  0.87101135     1.59600
O890        O  0.49582479  0.90975896  0.85200327    -0.81200
O891        O  0.99892762  0.50048216  0.83962258    -1.91700
Cd892      Cd  0.44859413  0.50353826  0.82855451     1.59900
O893        O  0.50302904  0.94535617  0.88147692    -0.81200
O894        O  0.46539687  0.55743537  0.81056094    -0.79800
C895        C  0.08405954  0.58929250  0.87078067     0.82700
C896        C  0.08138225  0.49512438  0.80610575     0.82300
O897        O  0.03732622  0.58768569  0.81174455    -0.78800
C898        C  0.40919040  0.91578463  0.80598031     0.83200
O899        O  0.08609377  0.58695114  0.85134165    -0.78900
C900        C  0.50138715  0.91351812  0.87137175     0.83300
C901        C  0.40922687  0.99661635  0.87161444     0.83600
O902        O  0.43963626  0.99538078  0.88169664    -0.81300
O903        O  0.29018293  0.57803644  0.52829427    -0.78800
C904        C  0.24879817  0.67395228  0.53349820     0.82200
O905        O  0.27790475  0.61067576  0.45769772    -0.79900
O906        O  0.33587662  0.75797200  0.48774851    -0.81400
O907        O  0.42230744  0.71550452  0.52884945    -0.81200
O908        O  0.36195384  0.60638035  0.52960609    -0.79800
Zn909      Zn  0.27795892  0.61787589  0.51111091     1.55700
O910        O  0.39254190  0.75777442  0.52958620    -0.81200
Cd911      Cd  0.38096895  0.66153646  0.51172506     1.59700
Cd912      Cd  0.33223119  0.66768431  0.46914431     1.59600
O913        O  0.41816953  0.66250578  0.48751443    -0.81200
O914        O  0.33138205  0.66646421  0.50064108    -1.91700
Cd915      Cd  0.33731766  0.72142242  0.51174755     1.59900
O916        O  0.38934956  0.67006496  0.45825499    -0.81200
O917        O  0.28375646  0.70862242  0.52887184    -0.79800
C918        C  0.24681584  0.57982605  0.46775760     0.82700
C919        C  0.32359801  0.57661969  0.53418519     0.82300
O920        O  0.24152915  0.63645348  0.52795944    -0.78800
C921        C  0.42278194  0.75011692  0.53437063     0.83200
O922        O  0.24396584  0.58098959  0.48726791    -0.78900
C923        C  0.41931396  0.66775846  0.46808392     0.83300
C924        C  0.33114481  0.75441203  0.46828247     0.83600
O925        O  0.32982247  0.72268131  0.45831483    -0.81300
C926        C  0.17667688  0.71599629  0.54741121     0.79900
N927        N  0.20170821  0.70438428  0.53646843    -0.78400
C928        C  0.21583451  0.67885634  0.54468547     0.82300
N929        N  0.20526196  0.66504292  0.56433561    -0.78400
C930        C  0.17975832  0.67594073  0.57557424     0.82400
N931        N  0.16597054  0.70230409  0.56727185    -0.80100
C932        C  0.20618594  0.65514900  0.62710610     0.79900
N933        N  0.16647936  0.62730604  0.63471279    -0.78400
C934        C  0.13002687  0.61841798  0.62428472     0.82300
N935        N  0.13328352  0.63631581  0.60531081    -0.78400
C936        C  0.17362346  0.66391047  0.59737705     0.82400
N937        N  0.20981517  0.67305766  0.60835364    -0.80100
C938        C  0.03737642  0.82229105  0.54775519     0.79900
N939        N  0.00044896  0.79667523  0.53710263    -0.78400
C940        C  0.46103271  0.78265058  0.54554628     0.82300
N941        N  0.45831066  0.79413554  0.56510439    -0.78400
C942        C  0.49512605  0.82023200  0.57604232     0.82400
N943        N  0.03501902  0.83376110  0.56752653    -0.80100
C944        C  0.49017104  0.87072462  0.62507977     0.79900
N945        N  0.00318376  0.86725353  0.60575015    -0.78400
C946        C  0.49017135  0.82679507  0.59787803     0.82300
N947        N  0.46390199  0.79071509  0.60910844    -0.78400
C948        C  0.45105419  0.79452121  0.62815947     0.82400
N949        N  0.46347877  0.83432663  0.63580202    -0.80100
C950        C  0.31668239  0.53810841  0.54556704     0.79900
N951        N  0.29097122  0.49854560  0.53719691    -0.78400
C952        C  0.27982807  0.96165290  0.54788136     0.82300
N953        N  0.29409717  0.96426295  0.56760085    -0.78400
C954        C  0.32067938  0.50427692  0.57604266     0.82400
N955        N  0.33135896  0.54099321  0.56504827    -0.80100
C956        C  0.37851997  0.01063515  0.62453351     0.79900
N957        N  0.36904973  0.53724608  0.63539531    -0.78400
C958        C  0.34099577  0.54906134  0.62812044     0.82300
N959        N  0.32350874  0.53579627  0.60921620    -0.78400
C960        C  0.33300493  0.00953114  0.59782210     0.82400
N961        N  0.36098705  0.99695814  0.60539655    -0.80100
O962        O  0.24411367  0.62697416  0.64443346    -0.78800
C963        C  0.33708205  0.58252801  0.63913704     0.82200
O964        O  0.27480985  0.61273303  0.71403486    -0.79900
O965        O  0.42198786  0.66874782  0.68447653    -0.81400
O966        O  0.38374243  0.75738643  0.64441634    -0.81200
O967        O  0.27512302  0.69901617  0.64232134    -0.79800
Zn968      Zn  0.28281192  0.61335984  0.66115938     1.55700
O969        O  0.42377755  0.72526639  0.64334900    -0.81200
Cd970      Cd  0.32887512  0.71633645  0.66056819     1.59700
Cd971      Cd  0.33250567  0.66674431  0.70301754     1.59600
O972        O  0.32943656  0.75385567  0.68424495    -0.81200
O973        O  0.33177599  0.66592339  0.67174749    -1.91700
Cd974      Cd  0.38590214  0.67047862  0.66079536     1.59900
O975        O  0.33625772  0.72476301  0.71355865    -0.81200
O976        O  0.37219610  0.61670487  0.64400851    -0.79800
C977        C  0.24405520  0.58167406  0.70388433     0.82700
C978        C  0.24419969  0.66095581  0.63826309     0.82300
O979        O  0.29988884  0.57647457  0.64422384    -0.78800
C980        C  0.41775187  0.75672796  0.63903752     0.83200
O981        O  0.24542224  0.57877346  0.68442675    -0.78900
C982        C  0.33461843  0.75503753  0.70363471     0.83300
C983        C  0.41827830  0.66417216  0.70388516     0.83600
O984        O  0.38674892  0.66326620  0.71382390    -0.81300
O985        O  0.75564369  0.36504052  0.47776441    -0.78800
C986        C  0.67246790  0.42369575  0.47184597     0.82200
O987        O  0.71850075  0.38958153  0.54783486    -0.79900
O988        O  0.57900146  0.33795090  0.51820629    -0.81400
O989        O  0.60560385  0.24297875  0.47630628    -0.81200
O990        O  0.71445127  0.29275059  0.47732934    -0.79800
Zn991      Zn  0.71877378  0.38298080  0.49457568     1.55700
O992        O  0.57454168  0.28406214  0.47751110    -0.81200
Cd993      Cd  0.66053468  0.27965484  0.49409699     1.59700
Cd994      Cd  0.66486496  0.33280278  0.53641665     1.59600
O995        O  0.66169116  0.24304286  0.51796241    -0.81200
O996        O  0.66578924  0.33423099  0.50506274    -1.91700
Cd997      Cd  0.61593376  0.33860029  0.49412182     1.59900
O998        O  0.66760261  0.27840943  0.54732869    -0.81200
O999        O  0.63424914  0.39339468  0.47620913    -0.79800
C1000       C  0.74938895  0.42057121  0.53780048     0.82700
C1001       C  0.74905018  0.32761394  0.47255708     0.82300
O1002       O  0.70613302  0.42276202  0.47771519    -0.78800
C1003       C  0.57466619  0.24981072  0.47190637     0.83200
O1004       O  0.75245623  0.41966683  0.51831466    -0.78900
C1005       C  0.66638320  0.24674636  0.53740137     0.83300
C1006       C  0.57803173  0.33241159  0.53758492     0.83600
O1007       O  0.60798792  0.33000290  0.54730887    -0.81300
C1008       C  0.79197762  0.34514108  0.37831272     0.79900
N1009       N  0.83175102  0.37145485  0.37028357    -0.78400
C1010       C  0.86836375  0.38226234  0.38113612     0.82300
N1011       N  0.86511166  0.36694004  0.40071363    -0.78400
C1012       C  0.82482294  0.33965030  0.40878272     0.82400
N1013       N  0.78851982  0.32945643  0.39760723    -0.80100
C1014       C  0.82093323  0.28549252  0.45835060     0.79900
N1015       N  0.83209358  0.30007511  0.43859790    -0.78400
C1016       C  0.81881728  0.32717488  0.43056968     0.82300
N1017       N  0.79331772  0.33780499  0.44193530    -0.78400
C1018       C  0.78222109  0.32306811  0.46142049     0.82400
N1019       N  0.79586790  0.29691787  0.46938480    -0.80100
C1020       C  0.50907838  0.12742602  0.38136713     0.79900
N1021       N  0.99703637  0.13068912  0.40095639    -0.78400
C1022       C  0.50977959  0.17108165  0.40888025     0.82300
N1023       N  0.53555379  0.20733254  0.39759307    -0.78400
C1024       C  0.54769028  0.20378808  0.37832747     0.82400
N1025       N  0.53454193  0.16401305  0.37043132    -0.80100
C1026       C  0.96031417  0.17774985  0.45807778     0.79900
N1027       N  0.96332845  0.16502008  0.43859920    -0.78400
C1028       C  0.50358964  0.17765990  0.43059958     0.82300
N1029       N  0.53995500  0.20407442  0.44168990    -0.78400
C1030       C  0.53661383  0.21693521  0.46083719     0.82400
N1031       N  0.99697486  0.20381573  0.46881552    -0.80100
C1032       C  0.67883438  0.46199296  0.46053116     0.79900
N1033       N  0.66307471  0.45856415  0.44127053    -0.78400
C1034       C  0.67324781  0.49486564  0.43010019     0.82300
N1035       N  0.70054061  0.03521885  0.43819089    -0.78400
C1036       C  0.71588301  0.03842852  0.45778863     0.82400
N1037       N  0.70511857  0.50176239  0.46859285    -0.80100
C1038       C  0.61650709  0.98859876  0.38103258     0.79900
N1039       N  0.63238003  0.00102933  0.40053458    -0.78400
C1040       C  0.66024605  0.98850758  0.40835423     0.82300
N1041       N  0.67030781  0.46244860  0.39704396    -0.78400
C1042       C  0.65418038  0.45001134  0.37783366     0.82400
N1043       N  0.62736869  0.46299975  0.37007763    -0.80100
O1044       O  0.69576511  0.42300804  0.36146247    -0.78800
C1045       C  0.75376697  0.33900783  0.36698303     0.82200
O1046       O  0.72018816  0.38595577  0.29121935    -0.79900
O1047       O  0.66648864  0.24539893  0.32046712    -0.81400
O1048       O  0.57322072  0.27266378  0.36266813    -0.81200
O1049       O  0.62350348  0.38201683  0.36194555    -0.79800
Zn1050     Zn  0.71340420  0.38601559  0.34451654     1.55700
O1051       O  0.61449783  0.24182936  0.36151953    -0.81200
Cd1052     Cd  0.61002266  0.32797258  0.34500979     1.59700
Cd1053     Cd  0.66322535  0.33239172  0.30254929     1.59600
O1054       O  0.57369254  0.32940994  0.32104472    -0.81200
O1055       O  0.66447424  0.33312443  0.33393302    -1.91700
Cd1056     Cd  0.66852345  0.28290026  0.34464387     1.59900
O1057       O  0.60920237  0.33559482  0.29169406    -0.81200
O1058       O  0.72360214  0.30087334  0.36231914    -0.79800
C1059       C  0.75120191  0.41681583  0.30126971     0.82700
C1060       C  0.65846158  0.41656420  0.36673477     0.82300
O1061       O  0.75282472  0.37285373  0.36138709    -0.78800
C1062       C  0.58022768  0.24182216  0.36711724     0.83200
O1063       O  0.75026254  0.41987314  0.32076783    -0.78900
C1064       C  0.57750785  0.33424268  0.30160470     0.83300
C1065       C  0.66103017  0.24459937  0.30108387     0.83600
O1066       O  0.65950067  0.27511103  0.29141080    -0.81300
C1067       C  0.86872867  0.48330190  0.29358474     0.79900
N1068       N  0.82911276  0.45835670  0.30200814    -0.78400
C1069       C  0.79238012  0.44706725  0.29118601     0.82300
N1070       N  0.79524694  0.46052300  0.27128640    -0.78400
C1071       C  0.83536080  0.48624422  0.26276661     0.82400
N1072       N  0.87187996  0.99701869  0.27390328    -0.80100
C1073       C  0.84189712  0.04465002  0.21451135     0.79900
N1074       N  0.86848220  0.03537037  0.20351794    -0.78400
C1075       C  0.88035797  0.50720698  0.21059641     0.82300
N1076       N  0.86717946  0.48943089  0.22949106    -0.78400
C1077       C  0.84081624  0.49870576  0.24098664     0.82400
N1078       N  0.82818197  0.02672130  0.23355090    -0.80100
O1079       O  0.95812353  0.41060632  0.19370465    -0.78800
C1080       C  0.91352398  0.50325648  0.19923970     0.82200
O1081       O  0.94232421  0.43996869  0.12384012    -0.81100
O1082       O  0.99872804  0.08821312  0.15323841    -0.81400
O1083       O  0.58742429  0.04985182  0.19348809    -0.81200
O1084       O  0.53007004  0.44148576  0.19546423    -0.79800
Zn1085     Zn  0.94435726  0.44918456  0.17691797     1.55700
O1086       O  0.55516052  0.08975308  0.19465198    -0.81200
Cd1087     Cd  0.54692613  0.49513209  0.17704778     1.59700
Cd1088     Cd  0.99704269  0.49850678  0.13443104     1.59600
O1089       O  0.58456818  0.99608232  0.15335069    -0.81200
O1090       O  0.99649956  0.49803218  0.16585427    -1.91700
Cd1091     Cd  0.00074966  0.05211177  0.17689373     1.59900
O1092       O  0.55578296  0.00259345  0.12386374    -0.81200
O1093       O  0.94719608  0.03838144  0.19390611    -0.79800
C1094       C  0.91152068  0.40959474  0.13433608     0.82700
C1095       C  0.99212379  0.41074543  0.19983124     0.82300
O1096       O  0.90766966  0.46604859  0.19425957    -0.78800
C1097       C  0.58648857  0.08363083  0.19909979     0.83200
O1098       O  0.90946593  0.41169284  0.15380276    -0.78900
C1099       C  0.58610470  0.00121439  0.13394473     0.83300
C1100       C  0.99372950  0.08455294  0.13383843     0.83600
O1101       O  0.99281793  0.05301935  0.12378722    -0.81300
C1102       C  0.65032066  0.20371359  0.29084585     0.79900
N1103       N  0.62516226  0.16684537  0.30163422    -0.78400
C1104       C  0.61119711  0.12730338  0.29328774     0.82300
N1105       N  0.62219395  0.12435495  0.27366126    -0.78400
C1106       C  0.64781324  0.16109834  0.26257443     0.82400
N1107       N  0.66141560  0.20113015  0.27102624    -0.80100
C1108       C  0.69984450  0.15499133  0.21432217     0.79900
N1109       N  0.69567235  0.16845396  0.23342951    -0.78400
C1110       C  0.65499718  0.15590750  0.24082260     0.82300
N1111       N  0.61933383  0.12973910  0.22928939    -0.78400
C1112       C  0.62386286  0.11655750  0.21040965     0.82400
N1113       N  0.66389021  0.12846124  0.20329800    -0.80100
C1114       C  0.54681259  0.34448525  0.29156142     0.79900
N1115       N  0.53487353  0.36914885  0.30256719    -0.78400
C1116       C  0.00942004  0.38331733  0.29435357     0.82300
N1117       N  0.99595901  0.37316990  0.27461955    -0.78400
C1118       C  0.00717133  0.34796930  0.26331409     0.82400
N1119       N  0.53345545  0.33411225  0.27163858    -0.80100
C1120       C  0.99486071  0.34139333  0.24153178     0.79900
N1121       N  0.96707214  0.30080391  0.23388895    -0.78400
C1122       C  0.94915269  0.29691164  0.21488061     0.82300
N1123       N  0.95828759  0.33304757  0.20407772    -0.78400
C1124       C  0.98635985  0.37305053  0.21137013     0.82400
N1125       N  0.50418510  0.37729744  0.23022109    -0.80100
O1126       O  0.90854220  0.45669338  0.31079042    -0.78800
C1127       C  0.00433752  0.41595017  0.30570703     0.82200
O1128       O  0.94061037  0.44416856  0.38146043    -0.79900
O1129       O  0.58868258  0.00344677  0.35174410    -0.81400
O1130       O  0.54463697  0.08837356  0.31030218    -0.81200
O1131       O  0.93625707  0.02844339  0.31007338    -0.79800
Zn1132     Zn  0.94817132  0.44460157  0.32810766     1.55700
O1133       O  0.58751688  0.05933447  0.30969427    -0.81200
Cd1134     Cd  0.99145770  0.04733878  0.32778897     1.59700
Cd1135     Cd  0.99792119  0.49857821  0.37028621     1.59600
O1136       O  0.49325573  0.08497056  0.35197117    -0.81200
O1137       O  0.99666206  0.49789078  0.33880083    -1.91700
Cd1138     Cd  0.55174291  0.50426591  0.32776862     1.59900
O1139       O  0.50078880  0.05605035  0.38120354    -0.81200
O1140       O  0.53893102  0.45075566  0.31059668    -0.79800
C1141       C  0.90979476  0.41322548  0.37128641     0.82700
C1142       C  0.90693821  0.49013981  0.30513221     0.82300
O1143       O  0.96679176  0.40849781  0.31116664    -0.78800
C1144       C  0.57929089  0.08912483  0.30471684     0.83200
O1145       O  0.91109851  0.41048113  0.35178315    -0.78900
C1146       C  0.49875180  0.08620852  0.37138435     0.83300
C1147       C  0.58506055  0.99838757  0.37119256     0.83600
O1148       O  0.55296709  0.99624550  0.38114931    -0.81300
O1149       O  0.88854691  0.13390892  0.02602756    -0.78800
C1150       C  0.74774833  0.07585283  0.03189941     0.82200
O1151       O  0.82651852  0.10736971  0.95541707    -0.79900
O1152       O  0.74054574  0.16245033  0.98472735    -0.81400
O1153       O  0.86069181  0.25482791  0.02775157    -0.81200
O1154       O  0.91955936  0.20610702  0.02656558    -0.79800
Zn1155     Zn  0.83434080  0.11610898  0.00882551     1.55700
O1156       O  0.78858296  0.21307824  0.02654830    -0.81200
Cd1157     Cd  0.87934269  0.21923208  0.00930027     1.59700
Cd1158     Cd  0.83113997  0.16591530  0.96639784     1.59600
O1159       O  0.91789975  0.25617480  0.98556726    -0.81200
O1160       O  0.83026952  0.16466702  0.99794092    -1.91700
Cd1161     Cd  0.77584424  0.15999445  0.00886303     1.59900
O1162       O  0.89030334  0.22040317  0.95602203    -0.81200
O1163       O  0.73907873  0.10522564  0.02678348    -0.79800
C1164       C  0.82662904  0.07683808  0.96586129     0.82700
C1165       C  0.91899141  0.17126423  0.03158740     0.82300
O1166       O  0.78248372  0.07697349  0.02615434    -0.78800
C1167       C  0.82277864  0.24703203  0.03261934     0.83200
O1168       O  0.83110311  0.07894667  0.98533508    -0.78900
C1169       C  0.92023741  0.25234802  0.96618784     0.83300
C1170       C  0.74527995  0.16901376  0.96539656     0.83600
O1171       O  0.77743346  0.17100126  0.95551436    -0.81300
C1172       C  0.77935843  0.31652226  0.04932155     0.79900
N1173       N  0.78975659  0.29128940  0.03780318    -0.78400
C1174       C  0.81711828  0.27836456  0.04483625     0.82300
N1175       N  0.83430806  0.29042506  0.06391942    -0.78400
C1176       C  0.82458292  0.31604019  0.07577839     0.82400
N1177       N  0.79636544  0.32873090  0.06862791    -0.80100
C1178       C  0.87970429  0.36774550  0.12500252     0.79900
N1179       N  0.86701405  0.33159507  0.13665624    -0.78400
C1180       C  0.84191949  0.29134089  0.12873906     0.82300
N1181       N  0.82861817  0.28709699  0.10891950    -0.78400
C1182       C  0.83901420  0.32288593  0.09729786     0.82400
N1183       N  0.86569464  0.36355590  0.10512939    -0.80100
C1184       C  0.67869140  0.46246310  0.04867165     0.79900
N1185       N  0.70384853  0.49815832  0.03709624    -0.78400
C1186       C  0.71676325  0.03856157  0.04411912     0.82300
N1187       N  0.70478414  0.04372912  0.06320151    -0.78400
C1188       C  0.67934334  0.00840249  0.07511375     0.82400
N1189       N  0.66667196  0.46739923  0.06800177    -0.80100
C1190       C  0.62779314  0.01171066  0.12436659     0.79900
N1191       N  0.63193263  0.50199743  0.10447188    -0.78400
C1192       C  0.67259692  0.01615180  0.09663850     0.82300
N1193       N  0.70841844  0.04161066  0.10829221    -0.78400
C1194       C  0.70413422  0.05049723  0.12814970     0.82400
N1195       N  0.66391557  0.03512866  0.13602329    -0.80100
C1196       C  0.53187402  0.21351070  0.04806264     0.79900
N1197       N  0.99627759  0.20279980  0.03642851    -0.78400
C1198       C  0.95582579  0.17571106  0.04350653     0.82300
N1199       N  0.95051754  0.15924729  0.06274863    -0.78400
C1200       C  0.98578821  0.16912564  0.07467781     0.82400
N1201       N  0.52682606  0.19707608  0.06749955    -0.80100
C1202       C  0.98311992  0.11555412  0.12417652     0.79900
N1203       N  0.96009422  0.12867981  0.13582094    -0.78400
C1204       C  0.94468731  0.15340020  0.12784201     0.82300
N1205       N  0.95307309  0.16592422  0.10788273    -0.78400
C1206       C  0.97814728  0.15511032  0.09624499     0.82400
N1207       N  0.49239816  0.12883058  0.10420684    -0.80100
O1208       O  0.77129107  0.19803236  0.20060895    -0.78800
C1209       C  0.91531543  0.25552868  0.20633776     0.82200
O1210       O  0.83318814  0.22103475  0.13167942    -0.79900
O1211       O  0.92017697  0.16465268  0.15982410    -0.81400
O1212       O  0.79775232  0.07200871  0.20130345    -0.81200
O1213       O  0.74135266  0.12582244  0.20235598    -0.79800
Zn1214     Zn  0.82718132  0.21575257  0.18433832     1.55700
O1215       O  0.86998688  0.11492393  0.20182988    -0.81200
Cd1216     Cd  0.77977549  0.11091156  0.18463104     1.59700
Cd1217     Cd  0.83049456  0.16532888  0.14314624     1.59600
O1218       O  0.73986347  0.07579006  0.16010614    -0.81200
O1219       O  0.83059577  0.16590635  0.17420154    -1.91700
Cd1220     Cd  0.88516256  0.16909985  0.18446472     1.59900
O1221       O  0.77453476  0.11207464  0.13171794    -0.81200
O1222       O  0.92365116  0.22566883  0.20150991    -0.79800
C1223       C  0.83437233  0.25328522  0.14088002     0.82700
C1224       C  0.74079084  0.16066521  0.20625594     0.82300
O1225       O  0.87971825  0.25359332  0.20139709    -0.78800
C1226       C  0.83556248  0.07945410  0.20632086     0.83200
O1227       O  0.83180615  0.25464258  0.16042097    -0.78900
C1228       C  0.74198086  0.08058642  0.14058971     0.83300
C1229       C  0.91501576  0.16158992  0.14032878     0.83600
O1230       O  0.88341912  0.16247730  0.13153861    -0.81300
O1231       O  0.71179498  0.42013652  0.97906163    -0.78800
C1232       C  0.57535751  0.32576524  0.97338423     0.82200
O1233       O  0.66766955  0.38966442  0.04984196    -0.79900
O1234       O  0.57644654  0.24106450  0.01943227    -0.81400
O1235       O  0.70599204  0.28445069  0.97860512    -0.81200
O1236       O  0.75531654  0.39201698  0.97853823    -0.79800
Zn1237     Zn  0.65984007  0.38101828  0.99638511     1.55700
O1238       O  0.63391794  0.24243658  0.97746932    -0.81200
Cd1239     Cd  0.71844050  0.33724054  0.99638493     1.59700
Cd1240     Cd  0.66304849  0.33108791  0.03883265     1.59600
O1241       O  0.75360710  0.33459551  0.02048418    -0.81200
O1242       O  0.66396934  0.33249204  0.00727576    -1.91700
Cd1243     Cd  0.61506729  0.27798570  0.99579584     1.59900
O1244       O  0.71678638  0.32601623  0.04971786    -0.81200
O1245       O  0.57490895  0.29097473  0.97839129    -0.79800
C1246       C  0.66759061  0.42024227  0.03941422     0.82700
C1247       C  0.74658316  0.42130284  0.97335837     0.82300
O1248       O  0.60562747  0.36313441  0.97906266    -0.78800
C1249       C  0.67186779  0.25043024  0.97255779     0.83200
O1250       O  0.66308256  0.41815526  0.01993591    -0.78900
C1251       C  0.74893990  0.32805732  0.03981136     0.83300
C1252       C  0.57404063  0.24470152  0.03881208     0.83600
O1253       O  0.60390042  0.27651099  0.04907110    -0.81300
C1254       C  0.61590491  0.13128153  0.87997290     0.79900
N1255       N  0.62866481  0.16736679  0.86823445    -0.78400
C1256       C  0.65405672  0.20769774  0.87605164     0.82300
N1257       N  0.66750285  0.21202501  0.89586678    -0.78400
C1258       C  0.65702473  0.17624210  0.90753772     0.82400
N1259       N  0.63011646  0.13558687  0.89979048    -0.80100
C1260       C  0.71505314  0.18078419  0.95584360     0.79900
N1261       N  0.70441968  0.20574906  0.96743314    -0.78400
C1262       C  0.67764328  0.21930158  0.96027265     0.82300
N1263       N  0.66133163  0.20821848  0.94099947    -0.78400
C1264       C  0.67128789  0.18289177  0.92907256     0.82400
N1265       N  0.69887340  0.16950140  0.93635039    -0.80100
C1266       C  0.86740346  0.48592466  0.88109610     0.79900
N1267       N  0.83150327  0.46307523  0.86921953    -0.78400
C1268       C  0.79114903  0.44790637  0.87687530     0.82300
N1269       N  0.78650785  0.45638193  0.89676157    -0.78400
C1270       C  0.82213139  0.48126303  0.90864567     0.82400
N1271       N  0.86290817  0.99527033  0.90100223    -0.80100
C1272       C  0.81563192  0.03466582  0.95661798     0.79900
N1273       N  0.79049422  0.49895745  0.96818129    -0.78400
C1274       C  0.77758320  0.45857664  0.96113611     0.82300
N1275       N  0.78959037  0.45344245  0.94204477    -0.78400
C1276       C  0.81506908  0.48881680  0.93015781     0.82400
N1277       N  0.82769559  0.02978600  0.93729529    -0.80100
C1278       C  0.01189525  0.38226780  0.88086315     0.79900
N1279       N  0.53498673  0.36938529  0.86911268    -0.78400
C1280       C  0.55020414  0.34434829  0.87690092     0.82300
N1281       N  0.54151159  0.33122377  0.89679408    -0.78400
C1282       C  0.01630811  0.34175070  0.90853260     0.82400
N1283       N  0.00231255  0.36839297  0.90074712    -0.80100
C1284       C  0.96244242  0.28342834  0.95684215     0.79900
N1285       N  0.96751543  0.29964526  0.93733916    -0.78400
C1286       C  0.50859346  0.32742775  0.93010433     0.82300
N1287       N  0.54385202  0.33739626  0.94207109    -0.78400
C1288       C  0.53852985  0.32119335  0.96137740     0.82400
N1289       N  0.99805818  0.29425072  0.96848649    -0.80100
O1290       O  0.72483922  0.30142915  0.80378610    -0.78800
C1291       C  0.66169275  0.24576763  0.86382017     0.82200
O1292       O  0.57200952  0.27274671  0.80316493    -0.79900
O1293       O  0.61179924  0.33580464  0.87307324    -0.81400
O1294       O  0.75596801  0.42307441  0.84469030    -0.81200
O1295       O  0.75423333  0.37358589  0.80195464    -0.79800
Zn1296     Zn  0.66887505  0.28326843  0.82024244     1.55700
O1297       O  0.72064190  0.38680093  0.87296591    -0.81200
Cd1298     Cd  0.71593756  0.38828694  0.82001270     1.59700
Cd1299     Cd  0.61036132  0.32955581  0.82010315     1.59600
O1300       O  0.69751374  0.42717383  0.80355849    -0.81200
O1301       O  0.66513132  0.33303923  0.83034503    -1.91700
Cd1302     Cd  0.66500270  0.33351350  0.86141101     1.59900
O1303       O  0.62535303  0.38365110  0.80264528    -0.81200
O1304       O  0.66265634  0.27798128  0.87295428    -0.79800
C1305       C  0.58038590  0.24286145  0.79843948     0.82700
C1306       C  0.75507240  0.33887709  0.79802403     0.82300
O1307       O  0.66445396  0.24443056  0.84427703    -0.78800
C1308       C  0.75347404  0.41818642  0.86421693     0.83200
O1309       O  0.61611393  0.24500905  0.80333282    -0.78900
C1310       C  0.65967172  0.41941194  0.79836212     0.83300
C1311       C  0.58011473  0.33657473  0.86431976     0.83600
O1312       O  0.57509673  0.33376963  0.84480389    -0.81300
C1313       C  0.94909654  0.15402019  0.71384986     0.79900
N1314       N  0.96261776  0.13089618  0.70255014    -0.78400
C1315       C  0.98656192  0.11513056  0.71103371     0.82300
N1316       N  0.49786932  0.12329731  0.73113307    -0.78400
C1317       C  0.48652028  0.14840503  0.74243548     0.82400
N1318       N  0.96103098  0.16298503  0.73397466    -0.80100
C1319       C  0.54638164  0.20117677  0.79019939     0.79900
N1320       N  0.53753004  0.16539403  0.80122815    -0.78400
C1321       C  0.50893404  0.12521298  0.79431381     0.82300
N1322       N  0.99032186  0.12032552  0.77564321    -0.78400
C1323       C  0.49935521  0.15578386  0.76410764     0.82400
N1324       N  0.52763655  0.19664246  0.77134772    -0.80100
O1325       O  0.53283360  0.44163999  0.63950836    -0.78800
C1326       C  0.58893771  0.08487726  0.63318758     0.82200
O1327       O  0.55521176  0.00420565  0.70854099    -0.79900
O1328       O  0.99834755  0.09002622  0.67940878    -0.81400
O1329       O  0.90600576  0.46683889  0.63818220    -0.81200
O1330       O  0.96076758  0.41178357  0.63727974    -0.79800
Zn1331     Zn  0.54986954  0.99735304  0.65581290     1.55700
O1332       O  0.94862238  0.03909045  0.63747402    -0.81200
Cd1333     Cd  0.94525458  0.44959418  0.65507046     1.59700
Cd1334     Cd  0.49890848  0.00044872  0.69684614     1.59600
O1335       O  0.91029662  0.40942336  0.67943332    -0.81200
O1336       O  0.49983071  0.00048877  0.66572032    -1.91700
Cd1337     Cd  0.00271403  0.05465029  0.65498217     1.59900
O1338       O  0.94561431  0.44381447  0.70808821    -0.81200
O1339       O  0.55886119  0.09304180  0.63771024    -0.79800
C1340       C  0.58756969  0.00563425  0.69932134     0.82700
C1341       C  0.49567598  0.41133674  0.63352512     0.82300
O1342       O  0.58739603  0.04969960  0.63863154    -0.78800
C1343       C  0.91332477  0.50452315  0.63295590     0.83200
O1344       O  0.58865833  0.00261696  0.67979676    -0.78900
C1345       C  0.91458682  0.41117709  0.69896861     0.83300
C1346       C  0.99490487  0.08512979  0.69891128     0.83600
O1347       O  0.99544850  0.05354476  0.70796246    -0.81300
C1348       C  0.79629642  0.34492775  0.79003293     0.79900
N1349       N  0.83194993  0.37137654  0.80124344    -0.78400
C1350       C  0.87215500  0.38330636  0.79439249     0.82300
N1351       N  0.87726371  0.37025607  0.77559401    -0.78400
C1352       C  0.84196895  0.34418027  0.76386018     0.82400
N1353       N  0.80102939  0.33155802  0.77098392    -0.80100
C1354       C  0.84480671  0.29610450  0.71360546     0.79900
N1355       N  0.86857618  0.33291409  0.70245935    -0.78400
C1356       C  0.88438199  0.37265428  0.71102310     0.82300
N1357       N  0.87554401  0.37564195  0.73104597    -0.78400
C1358       C  0.84978344  0.33900700  0.74218534     0.82400
N1359       N  0.83524247  0.29892948  0.73364694    -0.80100
C1360       C  0.65305070  0.45419841  0.79035260     0.79900
N1361       N  0.62623224  0.46295931  0.80144581    -0.78400
C1362       C  0.61436820  0.99129992  0.79462103     0.82300
N1363       N  0.62777958  0.00984022  0.77589164    -0.78400
C1364       C  0.65435179  0.00111024  0.76428961     0.82400
N1365       N  0.66700207  0.47287534  0.77145601    -0.80100
C1366       C  0.62623237  0.51409082  0.71126008     0.79900
N1367       N  0.66595497  0.03759425  0.70260414    -0.78400
C1368       C  0.70275250  0.05077236  0.71378994     0.82300
N1369       N  0.69981475  0.03895696  0.73395036    -0.78400
C1370       C  0.65975260  0.51399406  0.74257690     0.82400
N1371       N  0.62325057  0.50295800  0.73137969    -0.80100
O1372       O  0.58730841  0.03232342  0.81109887    -0.78800
C1373       C  0.50330209  0.08783181  0.80594736     0.82200
O1374       O  0.55334358  0.05895898  0.88136624    -0.79900
O1375       O  0.91084336  0.50192333  0.85223418    -0.81400
O1376       O  0.94025949  0.40934098  0.81052088    -0.81200
O1377       O  0.54777889  0.45999723  0.81148121    -0.79800
Zn1378     Zn  0.55097136  0.04919424  0.82847243     1.55700
O1379       O  0.90828367  0.44948645  0.81172556    -0.81200
Cd1380     Cd  0.49431672  0.44639121  0.82847788     1.59700
Cd1381     Cd  0.49861039  0.99996049  0.87101132     1.59600
O1382       O  0.99583583  0.40976220  0.85200278    -0.81200
O1383       O  0.49891841  0.00048078  0.83962251    -1.91700
Cd1384     Cd  0.94858710  0.00353874  0.82855253     1.59900
O1385       O  0.00303857  0.44535820  0.88147669    -0.81200
O1386       O  0.96539227  0.05743729  0.81055937    -0.79800
C1387       C  0.58405032  0.08928985  0.87078218     0.82700
C1388       C  0.58137322  0.99512230  0.80610784     0.82300
O1389       O  0.53732126  0.08768652  0.81174533    -0.78800
C1390       C  0.90919679  0.41578414  0.80598296     0.83200
O1391       O  0.58608506  0.08694881  0.85134318    -0.78900
C1392       C  0.00139669  0.41352038  0.87137135     0.83300
C1393       C  0.90923526  0.49661594  0.87161648     0.83600
O1394       O  0.93964557  0.49538101  0.88169816    -0.81300
O1395       O  0.79016892  0.07803471  0.52829691    -0.78800
C1396       C  0.74878620  0.17395197  0.53349945     0.82200
O1397       O  0.77789117  0.11067047  0.45769961    -0.79900
O1398       O  0.83586709  0.25797019  0.48774981    -0.81400
O1399       O  0.92229589  0.21549821  0.52884928    -0.81200
O1400       O  0.86193982  0.10637480  0.52960440    -0.79800
Zn1401     Zn  0.77794498  0.11787321  0.51111259     1.55700
O1402       O  0.89253229  0.25776978  0.52958666    -0.81200
Cd1403     Cd  0.88095576  0.16153183  0.51172445     1.59700
Cd1404     Cd  0.83221760  0.16768061  0.46914524     1.59600
O1405       O  0.91815823  0.16250441  0.48751387    -0.81200
O1406       O  0.83136862  0.16646053  0.50064194    -1.91700
Cd1407     Cd  0.83730620  0.22141915  0.51174889     1.59900
O1408       O  0.88933758  0.17006456  0.45825501    -0.81200
O1409       O  0.78374579  0.20862125  0.52887354    -0.79800
C1410       C  0.74680292  0.07982042  0.46775973     0.82700
C1411       C  0.82358444  0.07661649  0.53418578     0.82300
O1412       O  0.74151536  0.13645270  0.52796035    -0.78800
C1413       C  0.92277200  0.25011129  0.53437051     0.83200
O1414       O  0.74395241  0.08098462  0.48727000    -0.78900
C1415       C  0.91930315  0.16775926  0.46808351     0.83300
C1416       C  0.83113492  0.25441016  0.46828377     0.83600
O1417       O  0.82980960  0.22267800  0.45831618    -0.81300
C1418       C  0.67666840  0.21600072  0.54741143     0.79900
N1419       N  0.70169834  0.20438652  0.53646897    -0.78400
C1420       C  0.71582322  0.17885780  0.54468645     0.82300
N1421       N  0.70525028  0.16504541  0.56433673    -0.78400
C1422       C  0.67974781  0.17594518  0.57557511     0.82400
N1423       N  0.66596182  0.20230973  0.56727229    -0.80100
C1424       C  0.70617397  0.15515286  0.62710734     0.79900
N1425       N  0.66646724  0.12730884  0.63471350    -0.78400
C1426       C  0.63001483  0.11842056  0.62428526     0.82300
N1427       N  0.63327201  0.13631942  0.60531148    -0.78400
C1428       C  0.67361213  0.16391507  0.59737811     0.82400
N1429       N  0.70980365  0.17306240  0.60835500    -0.80100
C1430       C  0.53736741  0.32228923  0.54775357     0.79900
N1431       N  0.50043965  0.29667235  0.53710127    -0.78400
C1432       C  0.96102352  0.28264431  0.54554595     0.82300
N1433       N  0.95830211  0.29412631  0.56510468    -0.78400
C1434       C  0.99511767  0.32022320  0.57604229     0.82400
N1435       N  0.53501035  0.33375642  0.56752546    -0.80100
C1436       C  0.99017381  0.37071927  0.62508044     0.79900
N1437       N  0.50318391  0.36724599  0.60575062    -0.78400
C1438       C  0.99016418  0.32678645  0.59787802     0.82300
N1439       N  0.96389016  0.29070760  0.60910814    -0.78400
C1440       C  0.95104516  0.29451607  0.62815945     0.82400
N1441       N  0.96347706  0.33432258  0.63580248    -0.80100
C1442       C  0.81667042  0.03810642  0.54556795     0.79900
N1443       N  0.79096580  0.99854294  0.53719700    -0.78400
C1444       C  0.77983029  0.46165460  0.54788116     0.82300
N1445       N  0.79410265  0.46426324  0.56759993    -0.78400
C1446       C  0.82066704  0.00427727  0.57604434     0.82400
N1447       N  0.83134344  0.04099257  0.56504997    -0.80100
C1448       C  0.87853327  0.51063397  0.62453180     0.79900
N1449       N  0.86903624  0.03724724  0.63539695    -0.78400
C1450       C  0.84098207  0.04906214  0.62812205     0.82300
N1451       N  0.82349529  0.03579717  0.60921772    -0.78400
C1452       C  0.83301801  0.50953026  0.59782043     0.82400
N1453       N  0.86100034  0.49695730  0.60539472    -0.80100
O1454       O  0.74410127  0.12697738  0.64443472    -0.78800
C1455       C  0.83706793  0.08252850  0.63913883     0.82200
O1456       O  0.77479586  0.11273549  0.71403652    -0.79900
O1457       O  0.92197355  0.16874738  0.68447941    -0.81400
O1458       O  0.88373195  0.25738573  0.64441585    -0.81200
O1459       O  0.77511122  0.19901950  0.64232305    -0.79800
Zn1460     Zn  0.78279850  0.11336169  0.66116089     1.55700
O1461       O  0.92376529  0.22526363  0.64335128    -0.81200
Cd1462     Cd  0.82886469  0.21633862  0.66056909     1.59700
Cd1463     Cd  0.83249291  0.16674514  0.70301948     1.59600
O1464       O  0.82943123  0.25386007  0.68424586    -0.81200
O1465       O  0.83176301  0.16592455  0.67174927    -1.91700
Cd1466     Cd  0.88588835  0.17047787  0.66079797     1.59900
O1467       O  0.83624893  0.22476520  0.71355972    -0.81200
O1468       O  0.87218199  0.11670443  0.64401114    -0.79800
C1469       C  0.74404090  0.08167709  0.70388584     0.82700
C1470       C  0.74418764  0.16095937  0.63826454     0.82300
O1471       O  0.79987468  0.07647570  0.64422509    -0.78800
C1472       C  0.91774089  0.25672514  0.63903802     0.83200
O1473       O  0.74540809  0.07877622  0.68442831    -0.78900
C1474       C  0.83461328  0.25504140  0.70363561     0.83300
C1475       C  0.91826456  0.16417216  0.70388808     0.83600
O1476       O  0.88673516  0.16326603  0.71382682    -0.81300
O1477       O  0.75564805  0.86503749  0.47776534    -0.78800
C1478       C  0.67246832  0.92368938  0.47184677     0.82200
O1479       O  0.71850520  0.88957679  0.54783520    -0.79900
O1480       O  0.57900909  0.83794711  0.51820803    -0.81400
O1481       O  0.60561369  0.74297468  0.47630586    -0.81200
O1482       O  0.71445827  0.79274724  0.47733143    -0.79800
Zn1483     Zn  0.71877744  0.88297728  0.49457627     1.55700
O1484       O  0.57454777  0.78405447  0.47751267    -0.81200
Cd1485     Cd  0.66054158  0.77965069  0.49409807     1.59700
Cd1486     Cd  0.66487070  0.83279729  0.53641773     1.59600
O1487       O  0.66169717  0.74303773  0.51796290    -0.81200
O1488       O  0.66579476  0.83422620  0.50506389    -1.91700
Cd1489     Cd  0.61593861  0.83859357  0.49412317     1.59900
O1490       O  0.66760981  0.77840419  0.54732939    -0.81200
O1491       O  0.63425053  0.89338665  0.47621009    -0.79800
C1492       C  0.74939110  0.92056825  0.53780071     0.82700
C1493       C  0.74905593  0.82761106  0.47255870     0.82300
O1494       O  0.70613472  0.92275764  0.47771564    -0.78800
C1495       C  0.57467474  0.74980499  0.47190663     0.83200
O1496       O  0.75245856  0.91966459  0.51831486    -0.78900
C1497       C  0.66639021  0.74674128  0.53740177     0.83300
C1498       C  0.57803985  0.83240982  0.53758679     0.83600
O1499       O  0.60799503  0.82999953  0.54731084    -0.81300
C1500       C  0.79196834  0.84514077  0.37831330     0.79900
N1501       N  0.83174139  0.87145565  0.37028419    -0.78400
C1502       C  0.86835429  0.88226051  0.38113596     0.82300
N1503       N  0.86510315  0.86693429  0.40071239    -0.78400
C1504       C  0.82481507  0.83964324  0.40878143     0.82400
N1505       N  0.78851119  0.82945199  0.39760695    -0.80100
C1506       C  0.82093958  0.78549217  0.45834955     0.79900
N1507       N  0.83209336  0.80007092  0.43859592    -0.78400
C1508       C  0.81881233  0.82716727  0.43056814     0.82300
N1509       N  0.79331569  0.83779860  0.44193513    -0.78400
C1510       C  0.78222588  0.82306593  0.46142119     0.82400
N1511       N  0.79587634  0.79691833  0.46938506    -0.80100
C1512       C  0.50908154  0.62742384  0.38136541     0.79900
N1513       N  0.99704346  0.63068565  0.40095565    -0.78400
C1514       C  0.50978532  0.67107746  0.40888007     0.82300
N1515       N  0.53555443  0.70732904  0.39759238    -0.78400
C1516       C  0.54768676  0.70378591  0.37832570     0.82400
N1517       N  0.53453984  0.66401154  0.37042905    -0.80100
C1518       C  0.96032363  0.67774563  0.45807829     0.79900
N1519       N  0.96333693  0.66501604  0.43859965    -0.78400
C1520       C  0.50359744  0.67765453  0.43059975     0.82300
N1521       N  0.53996350  0.70406867  0.44168987    -0.78400
C1522       C  0.53662296  0.71692914  0.46083738     0.82400
N1523       N  0.99698460  0.70381034  0.46881593    -0.80100
C1524       C  0.67883153  0.96198619  0.46053247     0.79900
N1525       N  0.66306854  0.95855678  0.44127251    -0.78400
C1526       C  0.67323605  0.99485789  0.43010303     0.82300
N1527       N  0.70055477  0.53522620  0.43818786    -0.78400
C1528       C  0.71589396  0.53843521  0.45778627     0.82400
N1529       N  0.70511320  0.00175609  0.46859444    -0.80100
C1530       C  0.61652069  0.48860419  0.38102900     0.79900
N1531       N  0.63239410  0.50103650  0.40053081    -0.78400
C1532       C  0.66025971  0.48851492  0.40835111     0.82300
N1533       N  0.67029550  0.96244340  0.39704614    -0.78400
C1534       C  0.65416871  0.95000809  0.37783567     0.82400
N1535       N  0.62735632  0.96299620  0.37008034    -0.80100
O1536       O  0.69575518  0.92300816  0.36146325    -0.78800
C1537       C  0.75375775  0.83900851  0.36698380     0.82200
O1538       O  0.72018096  0.88596120  0.29121955    -0.79900
O1539       O  0.66648599  0.74540431  0.32046488    -0.81400
O1540       O  0.57321431  0.77266266  0.36266798    -0.81200
O1541       O  0.62349369  0.88201506  0.36194638    -0.79800
Zn1542     Zn  0.71339626  0.88601762  0.34451699     1.55700
O1543       O  0.61449191  0.74182913  0.36151648    -0.81200
Cd1544     Cd  0.61001471  0.82797232  0.34501008     1.59700
Cd1545     Cd  0.66321815  0.83239573  0.30254886     1.59600
O1546       O  0.57368314  0.82940851  0.32104568    -0.81200
O1547       O  0.66446697  0.83312689  0.33393257    -1.91700
Cd1548     Cd  0.66851755  0.78290291  0.34464216     1.59900
O1549       O  0.60919396  0.83559761  0.29169478    -0.81200
O1550       O  0.72359376  0.80087445  0.36231884    -0.79800
C1551       C  0.75119515  0.91682021  0.30127021     0.82700
C1552       C  0.65845121  0.91656274  0.36673583     0.82300
O1553       O  0.75281576  0.87285478  0.36138818    -0.78800
C1554       C  0.58022200  0.74182086  0.36711542     0.83200
O1555       O  0.75025573  0.91987635  0.32076847    -0.78900
C1556       C  0.57749853  0.83424284  0.30160578     0.83300
C1557       C  0.66102631  0.74460497  0.30108173     0.83600
O1558       O  0.65949448  0.77511597  0.29140925    -0.81300
C1559       C  0.86872247  0.98330541  0.29358639     0.79900
N1560       N  0.82910602  0.95836230  0.30200966    -0.78400
C1561       C  0.79237403  0.94707137  0.29118671     0.82300
N1562       N  0.79524218  0.96052340  0.27128629    -0.78400
C1563       C  0.83535672  0.98624211  0.26276655     0.82400
N1564       N  0.87188489  0.49701926  0.27390244    -0.80100
C1565       C  0.84189763  0.54465268  0.21451173     0.79900
N1566       N  0.86848113  0.53537184  0.20351765    -0.78400
C1567       C  0.88035923  0.00720594  0.21059710     0.82300
N1568       N  0.86717903  0.98942904  0.22949157    -0.78400
C1569       C  0.84081377  0.99870267  0.24098641     0.82400
N1570       N  0.82818430  0.52672478  0.23355165    -0.80100
O1571       O  0.95812405  0.91060667  0.19370405    -0.78800
C1572       C  0.91352597  0.00325593  0.19924057     0.82200
O1573       O  0.94232677  0.93997038  0.12383965    -0.81100
O1574       O  0.99872358  0.58821198  0.15323730    -0.81400
O1575       O  0.58742172  0.54985484  0.19348762    -0.81200
O1576       O  0.53007044  0.94148388  0.19546380    -0.79800
Zn1577     Zn  0.94435909  0.94918534  0.17691753     1.55700
O1578       O  0.55515783  0.58975604  0.19465026    -0.81200
Cd1579     Cd  0.54692823  0.99513056  0.17704760     1.59700
Cd1580     Cd  0.99704595  0.99850757  0.13443094     1.59600
O1581       O  0.58456633  0.49608445  0.15335096    -0.81200
O1582       O  0.99650233  0.99803247  0.16585427    -1.91700
Cd1583     Cd  0.00074685  0.55211218  0.17689267     1.59900
O1584       O  0.55578018  0.50259359  0.12386389    -0.81200
O1585       O  0.94719373  0.53838192  0.19390488    -0.79800
C1586       C  0.91152266  0.90959679  0.13433554     0.82700
C1587       C  0.99212356  0.91074470  0.19983085     0.82300
O1588       O  0.90767130  0.96604828  0.19425972    -0.78800
C1589       C  0.58648614  0.58363445  0.19909839     0.83200
O1590       O  0.90946784  0.91169484  0.15380220    -0.78900
C1591       C  0.58610249  0.50121571  0.13394494     0.83300
C1592       C  0.99372449  0.58455105  0.13383740     0.83600
O1593       O  0.99281301  0.55301726  0.12378648    -0.81300
C1594       C  0.65031862  0.70371990  0.29084334     0.79900
N1595       N  0.62516400  0.66685107  0.30163201    -0.78400
C1596       C  0.61120155  0.62730947  0.29328548     0.82300
N1597       N  0.62219734  0.62436233  0.27365868    -0.78400
C1598       C  0.64781270  0.66110625  0.26257153     0.82400
N1599       N  0.66141238  0.70113761  0.27102336    -0.80100
C1600       C  0.69984244  0.65499489  0.21432010     0.79900
N1601       N  0.69567078  0.66846004  0.23342685    -0.78400
C1602       C  0.65499602  0.65591581  0.24081966     0.82300
N1603       N  0.61933232  0.62974680  0.22928673    -0.78400
C1604       C  0.62386083  0.61656253  0.21040755     0.82400
N1605       N  0.66388793  0.62846428  0.20329618    -0.80100
C1606       C  0.54680200  0.84448393  0.29156298     0.79900
N1607       N  0.53486186  0.86914637  0.30256899    -0.78400
C1608       C  0.00940800  0.88331456  0.29435543     0.82300
N1609       N  0.99594751  0.87316772  0.27462128    -0.78400
C1610       C  0.00716069  0.84796782  0.26331574     0.82400
N1611       N  0.53344556  0.83411162  0.27164014    -0.80100
C1612       C  0.99485190  0.84139248  0.24153333     0.79900
N1613       N  0.96706485  0.80080322  0.23389000    -0.78400
C1614       C  0.94914959  0.79691118  0.21488071     0.82300
N1615       N  0.95828700  0.83304713  0.20407724    -0.78400
C1616       C  0.98635803  0.87304996  0.21137020     0.82400
N1617       N  0.50417910  0.87729676  0.23022219    -0.80100
O1618       O  0.90853395  0.95669524  0.31079211    -0.78800
C1619       C  0.00432582  0.91594743  0.30570906     0.82200
O1620       O  0.94059921  0.94416733  0.38146132    -0.79900
O1621       O  0.58869540  0.50345169  0.35174045    -0.81400
O1622       O  0.54464291  0.58837593  0.31030054    -0.81200
O1623       O  0.93626403  0.52844126  0.31007082    -0.79800
Zn1624     Zn  0.94816165  0.94460171  0.32810888     1.55700
O1625       O  0.58752567  0.55934019  0.30969120    -0.81200
Cd1626     Cd  0.99146448  0.54733826  0.32778685     1.59700
Cd1627     Cd  0.99791027  0.99857703  0.37028838     1.59600
O1628       O  0.49325960  0.58496861  0.35196926    -0.81200
O1629       O  0.99665220  0.99788977  0.33880302    -1.91700
Cd1630     Cd  0.55173198  0.00426161  0.32777183     1.59900
O1631       O  0.50079873  0.55605103  0.38120116    -0.81200
O1632       O  0.53891962  0.95075109  0.31060020    -0.79800
C1633       C  0.90978466  0.91322443  0.37128677     0.82700
C1634       C  0.90693089  0.99014235  0.30513435     0.82300
O1635       O  0.96678005  0.90849694  0.31116738    -0.78800
C1636       C  0.57929762  0.58912966  0.30471462     0.83200
O1637       O  0.91108894  0.91048083  0.35178359    -0.78900
C1638       C  0.49875779  0.58620739  0.37138232     0.83300
C1639       C  0.58507361  0.49839212  0.37118894     0.83600
O1640       O  0.55297987  0.49624891  0.38114591    -0.81300
O1641       O  0.88854748  0.63390990  0.02602643    -0.78800
C1642       C  0.74774910  0.57585429  0.03190023     0.82200
O1643       O  0.82651719  0.60736859  0.95541686    -0.79900
O1644       O  0.74054611  0.66245135  0.98472738    -0.81400
O1645       O  0.86069263  0.75482994  0.02775123    -0.81200
O1646       O  0.91955903  0.70610794  0.02656534    -0.79800
Zn1647     Zn  0.83434049  0.61610941  0.00882525     1.55700
O1648       O  0.78858382  0.71307986  0.02654867    -0.81200
Cd1649     Cd  0.87934208  0.71923282  0.00930013     1.59700
Cd1650     Cd  0.83113896  0.66591414  0.96639798     1.59600
O1651       O  0.91789905  0.75617453  0.98556707    -0.81200
O1652       O  0.83026890  0.66466733  0.99794105    -1.91700
Cd1653     Cd  0.77584427  0.65999554  0.00886347     1.59900
O1654       O  0.89030248  0.72040138  0.95602216    -0.81200
O1655       O  0.73907924  0.60522696  0.02678425    -0.79800
C1656       C  0.82662759  0.57683709  0.96586120     0.82700
C1657       C  0.91899171  0.67126516  0.03158648     0.82300
O1658       O  0.78248434  0.57697489  0.02615492    -0.78800
C1659       C  0.82277963  0.74703401  0.03261928     0.83200
O1660       O  0.83110149  0.57894608  0.98533498    -0.78900
C1661       C  0.92023655  0.75234666  0.96618774     0.83300
C1662       C  0.74528024  0.66901396  0.96539652     0.83600
O1663       O  0.77743343  0.67100064  0.95551438    -0.81300
C1664       C  0.77935937  0.81652440  0.04932081     0.79900
N1665       N  0.78975806  0.79129177  0.03780257    -0.78400
C1666       C  0.81711958  0.77836702  0.04483593     0.82300
N1667       N  0.83430880  0.79042749  0.06391918    -0.78400
C1668       C  0.82458334  0.81604265  0.07577798     0.82400
N1669       N  0.79636578  0.82873303  0.06862724    -0.80100
C1670       C  0.87970548  0.86774793  0.12500200     0.79900
N1671       N  0.86701400  0.83159744  0.13665590    -0.78400
C1672       C  0.84191832  0.79134338  0.12873889     0.82300
N1673       N  0.82861697  0.78709954  0.10891934    -0.78400
C1674       C  0.83901419  0.82288855  0.09729752     0.82400
N1675       N  0.86569591  0.86355841  0.10512886    -0.80100
C1676       C  0.67868940  0.96246172  0.04867030     0.79900
N1677       N  0.70384621  0.99815694  0.03709489    -0.78400
C1678       C  0.71676412  0.53856294  0.04412009     0.82300
N1679       N  0.70478321  0.54373044  0.06320204    -0.78400
C1680       C  0.67934221  0.50840376  0.07511432     0.82400
N1681       N  0.66667163  0.96739787  0.06800085    -0.80100
C1682       C  0.62779108  0.51171217  0.12436684     0.79900
N1683       N  0.63193455  0.00199601  0.10447162    -0.78400
C1684       C  0.67259515  0.51615320  0.09663889     0.82300
N1685       N  0.70841646  0.54161178  0.10829268    -0.78400
C1686       C  0.70413214  0.55049846  0.12815011     0.82400
N1687       N  0.66391343  0.53513013  0.13602360    -0.80100
C1688       C  0.53187412  0.71350974  0.04806161     0.79900
N1689       N  0.99627792  0.70279928  0.03642734    -0.78400
C1690       C  0.95582597  0.67571157  0.04350547     0.82300
N1691       N  0.95051722  0.65924838  0.06274765    -0.78400
C1692       C  0.98578755  0.66912623  0.07467696     0.82400
N1693       N  0.52682567  0.69707571  0.06749869    -0.80100
C1694       C  0.98311497  0.61555223  0.12417539     0.79900
N1695       N  0.96008939  0.62867824  0.13581963    -0.78400
C1696       C  0.94468407  0.65340016  0.12784072     0.82300
N1697       N  0.95307158  0.66592522  0.10788162    -0.78400
C1698       C  0.97814564  0.65511083  0.09624410     0.82400
N1699       N  0.49239492  0.62882977  0.10420594    -0.80100
O1700       O  0.77128934  0.69803445  0.20060756    -0.78800
C1701       C  0.91531280  0.75552877  0.20633753     0.82200
O1702       O  0.83318514  0.72103653  0.13167902    -0.79900
O1703       O  0.92017462  0.66465373  0.15982278    -0.81400
O1704       O  0.79775207  0.57201146  0.20130437    -0.81200
O1705       O  0.74135035  0.62582453  0.20235505    -0.79800
Zn1706     Zn  0.82717984  0.71575399  0.18433783     1.55700
O1707       O  0.86998671  0.61492590  0.20182915    -0.81200
Cd1708     Cd  0.77977441  0.61091325  0.18463106     1.59700
Cd1709     Cd  0.83049230  0.66533089  0.14314564     1.59600
O1710       O  0.73986244  0.57579074  0.16010634    -0.81200
O1711       O  0.83059408  0.66590781  0.17420095    -1.91700
Cd1712     Cd  0.88516107  0.66910124  0.18446365     1.59900
O1713       O  0.77453207  0.61207641  0.13171802    -0.81200
O1714       O  0.92364943  0.72567005  0.20150868    -0.79800
C1715       C  0.83437074  0.75328749  0.14087978     0.82700
C1716       C  0.74078860  0.66066758  0.20625441     0.82300
O1717       O  0.87971531  0.75359320  0.20139742    -0.78800
C1718       C  0.83556254  0.57945666  0.20632114     0.83200
O1719       O  0.83180587  0.75464516  0.16042078    -0.78900
C1720       C  0.74197893  0.58058763  0.14058994     0.83300
C1721       C  0.91501320  0.66159097  0.14032751     0.83600
O1722       O  0.88341665  0.66247898  0.13153746    -0.81300
O1723       O  0.71179458  0.92013629  0.97906071    -0.78800
C1724       C  0.57535719  0.82576234  0.97338296     0.82200
O1725       O  0.66766859  0.88966359  0.04984057    -0.79900
O1726       O  0.57644753  0.74106200  0.01943138    -0.81400
O1727       O  0.70599403  0.78445288  0.97860346    -0.81200
O1728       O  0.75531781  0.89201869  0.97853790    -0.79800
Zn1729     Zn  0.65983949  0.88101709  0.99638386     1.55700
O1730       O  0.63392000  0.74243672  0.97746853    -0.81200
Cd1731     Cd  0.71844162  0.83724159  0.99638388     1.59700
Cd1732     Cd  0.66304827  0.83108739  0.03883154     1.59600
O1733       O  0.75360783  0.83459660  0.02048325    -0.81200
O1734       O  0.66396969  0.83249159  0.00727470    -1.91700
Cd1735     Cd  0.61506804  0.77798426  0.99579508     1.59900
O1736       O  0.71678645  0.82601668  0.04971681    -0.81200
O1737       O  0.57490878  0.79097212  0.97839052    -0.79800
C1738       C  0.66758864  0.92024094  0.03941287     0.82700
C1739       C  0.74658352  0.92130372  0.97335782     0.82300
O1740       O  0.60562723  0.86313184  0.97906092    -0.78800
C1741       C  0.67187003  0.75043187  0.97255647     0.83200
O1742       O  0.66308019  0.91815371  0.01993454    -0.78900
C1743       C  0.74894043  0.82805851  0.03981041     0.83300
C1744       C  0.57404103  0.74470003  0.03881107     0.83600
O1745       O  0.60390021  0.77651041  0.04906990    -0.81300
C1746       C  0.61591302  0.63128480  0.87997115     0.79900
N1747       N  0.62867007  0.66736976  0.86823281    -0.78400
C1748       C  0.65405944  0.70770106  0.87605017     0.82300
N1749       N  0.66750586  0.71202902  0.89586527    -0.78400
C1750       C  0.65703080  0.67624652  0.90753603     0.82400
N1751       N  0.63012499  0.63559090  0.89978860    -0.80100
C1752       C  0.71505413  0.68078468  0.95584311     0.79900
N1753       N  0.70442028  0.70574943  0.96743251    -0.78400
C1754       C  0.67764590  0.71930373  0.96027130     0.82300
N1755       N  0.66133677  0.70822290  0.94099768    -0.78400
C1756       C  0.67129331  0.68289618  0.92907090     0.82400
N1757       N  0.69887670  0.66950378  0.93634947    -0.80100
C1758       C  0.86739570  0.98592675  0.88109390     0.79900
N1759       N  0.83149513  0.96307771  0.86921760    -0.78400
C1760       C  0.79114130  0.94790878  0.87687375     0.82300
N1761       N  0.78650078  0.95638388  0.89676025    -0.78400
C1762       C  0.82212496  0.98126481  0.90864400     0.82400
N1763       N  0.86291513  0.49526868  0.90100428    -0.80100
C1764       C  0.81563105  0.53466473  0.95661805     0.79900
N1765       N  0.79049611  0.99895838  0.96818134    -0.78400
C1766       C  0.77758301  0.95857761  0.96113555     0.82300
N1767       N  0.78958691  0.95344348  0.94204343    -0.78400
C1768       C  0.81506443  0.98881799  0.93015641     0.82400
N1769       N  0.82769809  0.52978485  0.93729611    -0.80100
C1770       C  0.01188806  0.88226680  0.88086343     0.79900
N1771       N  0.53497970  0.86938507  0.86911256    -0.78400
C1772       C  0.55019908  0.84434943  0.87690063     0.82300
N1773       N  0.54150840  0.83122577  0.89679389    -0.78400
C1774       C  0.01630504  0.84175190  0.90853285     0.82400
N1775       N  0.00230713  0.86839247  0.90074757    -0.80100
C1776       C  0.96244143  0.78342631  0.95684191     0.79900
N1777       N  0.96751374  0.79964532  0.93733944    -0.78400
C1778       C  0.50859141  0.82742820  0.93010446     0.82300
N1779       N  0.54385044  0.83739511  0.94207059    -0.78400
C1780       C  0.53852897  0.82118993  0.96137641     0.82400
N1781       N  0.99805749  0.79424695  0.96848568    -0.80100
O1782       O  0.72483284  0.80143110  0.80378308    -0.78800
C1783       C  0.66169206  0.74577002  0.86381879     0.82200
O1784       O  0.57200201  0.77274343  0.80316567    -0.79900
O1785       O  0.61179332  0.83580445  0.87307238    -0.81400
O1786       O  0.75595996  0.92307619  0.84468904    -0.81200
O1787       O  0.75422759  0.87358805  0.80195339    -0.79800
Zn1788     Zn  0.66887053  0.78326983  0.82024105     1.55700
O1789       O  0.72063507  0.88680191  0.87296471    -0.81200
Cd1790     Cd  0.71593057  0.88828795  0.82001145     1.59700
Cd1791     Cd  0.61035408  0.82955462  0.82010253     1.59600
O1792       O  0.69750468  0.92717333  0.80355752    -0.81200
O1793       O  0.66512528  0.83303967  0.83034384    -1.91700
Cd1794     Cd  0.66499686  0.83351361  0.86140980     1.59900
O1795       O  0.62534420  0.88364863  0.80264399    -0.81200
O1796       O  0.66265279  0.77798226  0.87295299    -0.79800
C1797       C  0.58037979  0.74285918  0.79844007     0.82700
C1798       C  0.75506616  0.83887937  0.79802158     0.82300
O1799       O  0.66445346  0.74443343  0.84427565    -0.78800
C1800       C  0.75346629  0.91818818  0.86421568     0.83200
O1801       O  0.61610904  0.74500877  0.80333257    -0.78900
C1802       C  0.65966228  0.91941021  0.79836108     0.83300
C1803       C  0.58010916  0.83657571  0.86431908     0.83600
O1804       O  0.57509082  0.83377070  0.84480328    -0.81300
C1805       C  0.94910939  0.65401953  0.71384729     0.79900
N1806       N  0.96263118  0.63089531  0.70254808    -0.78400
C1807       C  0.98657303  0.61512789  0.71103258     0.82300
N1808       N  0.49787724  0.62329277  0.73113238    -0.78400
C1809       C  0.48652722  0.64840033  0.74243428     0.82400
N1810       N  0.96104057  0.66298233  0.73397245    -0.80100
C1811       C  0.54637678  0.70117373  0.79020028     0.79900
N1812       N  0.53752645  0.66539173  0.80122938    -0.78400
C1813       C  0.50893520  0.62520988  0.79431416     0.82300
N1814       N  0.99032699  0.62032107  0.77564244    -0.78400
C1815       C  0.49935918  0.65577881  0.76410671     0.82400
N1816       N  0.52763556  0.69663802  0.77134755    -0.80100
O1817       O  0.53282458  0.94164378  0.63951003    -0.78800
C1818       C  0.58895006  0.58487487  0.63318705     0.82200
O1819       O  0.55522786  0.50420414  0.70853912    -0.79900
O1820       O  0.99835747  0.59002241  0.67940776    -0.81400
O1821       O  0.90599412  0.96684021  0.63818221    -0.81200
O1822       O  0.96075893  0.91178588  0.63727770    -0.79800
Zn1823     Zn  0.54988156  0.49734972  0.65581137     1.55700
O1824       O  0.94863597  0.53908854  0.63747197    -0.81200
Cd1825     Cd  0.94524321  0.94959431  0.65506952     1.59700
Cd1826     Cd  0.49892478  0.50044876  0.69684555     1.59600
O1827       O  0.91028526  0.90942021  0.67943160    -0.81200
O1828       O  0.49984410  0.50048731  0.66571975    -1.91700
Cd1829     Cd  0.00272614  0.55464783  0.65498126     1.59900
O1830       O  0.94559809  0.94381278  0.70808721    -0.81200
O1831       O  0.55887442  0.59304019  0.63771043    -0.79800
C1832       C  0.58758434  0.50563049  0.69931919     0.82700
C1833       C  0.49566883  0.91134053  0.63352474     0.82300
O1834       O  0.58740769  0.54969640  0.63863005    -0.78800
C1835       C  0.91331190  0.00452483  0.63295732     0.83200
O1836       O  0.58867182  0.50261221  0.67979456    -0.78900
C1837       C  0.91457352  0.91117394  0.69896700     0.83300
C1838       C  0.99491749  0.58512777  0.69891040     0.83600
O1839       O  0.99546526  0.55354518  0.70796187    -0.81300
C1840       C  0.79629003  0.84493008  0.79003011     0.79900
N1841       N  0.83194380  0.87137988  0.80124010    -0.78400
C1842       C  0.87214854  0.88330695  0.79438970     0.82300
N1843       N  0.87725655  0.87025243  0.77559208    -0.78400
C1844       C  0.84196139  0.84417528  0.76385865     0.82400
N1845       N  0.80102209  0.83155596  0.77098200    -0.80100
C1846       C  0.84480640  0.79609953  0.71360458     0.79900
N1847       N  0.86857117  0.83290967  0.70245800    -0.78400
C1848       C  0.88437082  0.87264958  0.71102119     0.82300
N1849       N  0.87553144  0.87563648  0.73104386    -0.78400
C1850       C  0.84977556  0.83900103  0.74218379     0.82400
N1851       N  0.83524081  0.79892379  0.73364601    -0.80100
C1852       C  0.65304004  0.95419641  0.79035229     0.79900
N1853       N  0.62622238  0.96295687  0.80144646    -0.78400
C1854       C  0.61437789  0.49130156  0.79461937     0.82300
N1855       N  0.62779042  0.50984092  0.77588978    -0.78400
C1856       C  0.65436383  0.50111068  0.76428871     0.82400
N1857       N  0.66699033  0.97287435  0.77145583    -0.80100
C1858       C  0.62621801  0.01409562  0.71126232     0.79900
N1859       N  0.66596953  0.53758891  0.70260213    -0.78400
C1860       C  0.70276680  0.55076858  0.71378838     0.82300
N1861       N  0.69982839  0.53895524  0.73394925    -0.78400
C1862       C  0.65973932  0.01399534  0.74257820     0.82400
N1863       N  0.62323681  0.00296076  0.73138157    -0.80100
O1864       O  0.58731745  0.53232547  0.81109689    -0.78800
C1865       C  0.50330585  0.58782994  0.80594776     0.82200
O1866       O  0.55335364  0.55896149  0.88136512    -0.79900
O1867       O  0.91083545  0.00192320  0.85223205    -0.81400
O1868       O  0.94025106  0.90933943  0.81052007    -0.81200
O1869       O  0.54776970  0.95999505  0.81148298    -0.79800
Zn1870     Zn  0.55097976  0.54919532  0.82847123     1.55700
O1871       O  0.90827834  0.94948800  0.81172209    -0.81200
Cd1872     Cd  0.49430654  0.94638873  0.82847848     1.59700
Cd1873     Cd  0.49861997  0.49996233  0.87101135     1.59600
O1874       O  0.99582483  0.90975895  0.85200327    -0.81200
O1875       O  0.49892757  0.50048217  0.83962258    -1.91700
Cd1876     Cd  0.94859419  0.50353826  0.82855452     1.59900
O1877       O  0.00302914  0.94535621  0.88147691    -0.81200
O1878       O  0.96539684  0.55743541  0.81056093    -0.79800
C1879       C  0.58405955  0.58929250  0.87078067     0.82700
C1880       C  0.58138230  0.49512437  0.80610576     0.82300
O1881       O  0.53732627  0.58768573  0.81174454    -0.78800
C1882       C  0.90919041  0.91578462  0.80598031     0.83200
O1883       O  0.58609384  0.58695111  0.85134166    -0.78900
C1884       C  0.00138718  0.91351811  0.87137175     0.83300
C1885       C  0.90922683  0.99661633  0.87161445     0.83600
O1886       O  0.93963621  0.99538076  0.88169665    -0.81300
O1887       O  0.79018300  0.57803644  0.52829428    -0.78800
C1888       C  0.74879814  0.67395227  0.53349819     0.82200
O1889       O  0.77790483  0.61067576  0.45769772    -0.79900
O1890       O  0.83587669  0.75797200  0.48774851    -0.81400
O1891       O  0.92230734  0.71550447  0.52884945    -0.81200
O1892       O  0.86195389  0.60638037  0.52960608    -0.79800
Zn1893     Zn  0.77795897  0.61787589  0.51111091     1.55700
O1894       O  0.89254196  0.75777449  0.52958621    -0.81200
Cd1895     Cd  0.88096880  0.66153646  0.51172506     1.59700
Cd1896     Cd  0.83223127  0.66768431  0.46914431     1.59600
O1897       O  0.91816954  0.66250578  0.48751445    -0.81200
O1898       O  0.83138205  0.66646421  0.50064107    -1.91700
Cd1899     Cd  0.83731773  0.72142242  0.51174755     1.59900
O1900       O  0.88934960  0.67006496  0.45825499    -0.81200
O1901       O  0.78375648  0.70862239  0.52887185    -0.79800
C1902       C  0.74681593  0.57982604  0.46775760     0.82700
C1903       C  0.82359808  0.57661969  0.53418519     0.82300
O1904       O  0.74152903  0.63645346  0.52795941    -0.78800
C1905       C  0.92278197  0.75011693  0.53437062     0.83200
O1906       O  0.74396593  0.58098958  0.48726791    -0.78900
C1907       C  0.91931402  0.66775847  0.46808393     0.83300
C1908       C  0.83114489  0.75441204  0.46828247     0.83600
O1909       O  0.82982255  0.72268131  0.45831483    -0.81300
C1910       C  0.67667694  0.71599632  0.54741121     0.79900
N1911       N  0.70170825  0.70438430  0.53646843    -0.78400
C1912       C  0.71583454  0.67885638  0.54468548     0.82300
N1913       N  0.70526198  0.66504292  0.56433561    -0.78400
C1914       C  0.67975832  0.67594071  0.57557423     0.82400
N1915       N  0.66597058  0.70230410  0.56727185    -0.80100
C1916       C  0.70618598  0.65514902  0.62710611     0.79900
N1917       N  0.66647941  0.62730606  0.63471280    -0.78400
C1918       C  0.63002691  0.61841796  0.62428472     0.82300
N1919       N  0.63328356  0.63631579  0.60531081    -0.78400
C1920       C  0.67362348  0.66391046  0.59737705     0.82400
N1921       N  0.70981520  0.67305767  0.60835364    -0.80100
C1922       C  0.53737634  0.82229107  0.54775517     0.79900
N1923       N  0.50044888  0.79667529  0.53710261    -0.78400
C1924       C  0.96103279  0.78265056  0.54554627     0.82300
N1925       N  0.95831072  0.79413553  0.56510438    -0.78400
C1926       C  0.99512612  0.82023201  0.57604232     0.82400
N1927       N  0.53501897  0.83376107  0.56752652    -0.80100
C1928       C  0.99017098  0.87072461  0.62507977     0.79900
N1929       N  0.50318382  0.86725353  0.60575017    -0.78400
C1930       C  0.99017138  0.82679507  0.59787804     0.82300
N1931       N  0.96390203  0.79071510  0.60910844    -0.78400
C1932       C  0.95105416  0.79452121  0.62815947     0.82400
N1933       N  0.96347876  0.83432663  0.63580201    -0.80100
C1934       C  0.81668248  0.53810842  0.54556703     0.79900
N1935       N  0.79097129  0.49854560  0.53719691    -0.78400
C1936       C  0.77982815  0.96165289  0.54788135     0.82300
N1937       N  0.79409716  0.96426288  0.56760085    -0.78400
C1938       C  0.82067943  0.50427694  0.57604266     0.82400
N1939       N  0.83135903  0.54099321  0.56504826    -0.80100
C1940       C  0.87851999  0.01063514  0.62453350     0.79900
N1941       N  0.86904968  0.53724608  0.63539531    -0.78400
C1942       C  0.84099576  0.54906133  0.62812044     0.82300
N1943       N  0.82350867  0.53579627  0.60921619    -0.78400
C1944       C  0.83300483  0.00953101  0.59782213     0.82400
N1945       N  0.86098694  0.99695808  0.60539655    -0.80100
O1946       O  0.74411373  0.62697416  0.64443345    -0.78800
C1947       C  0.83708200  0.58252800  0.63913704     0.82200
O1948       O  0.77480985  0.61273301  0.71403487    -0.79900
O1949       O  0.92198794  0.66874782  0.68447652    -0.81400
O1950       O  0.88374247  0.75738641  0.64441635    -0.81200
O1951       O  0.77512308  0.69901617  0.64232134    -0.79800
Zn1952     Zn  0.78281199  0.61335984  0.66115938     1.55700
O1953       O  0.92377764  0.72526641  0.64334900    -0.81200
Cd1954     Cd  0.82887519  0.71633645  0.66056819     1.59700
Cd1955     Cd  0.83250574  0.66674431  0.70301754     1.59600
O1956       O  0.82943663  0.75385566  0.68424496    -0.81200
O1957       O  0.83177607  0.66592340  0.67174750    -1.91700
Cd1958     Cd  0.88590221  0.67047863  0.66079536     1.59900
O1959       O  0.83625780  0.72476301  0.71355866    -0.81200
O1960       O  0.87219607  0.61670490  0.64400850    -0.79800
C1961       C  0.74405518  0.58167406  0.70388432     0.82700
C1962       C  0.74419974  0.66095583  0.63826309     0.82300
O1963       O  0.79988883  0.57647453  0.64422385    -0.78800
C1964       C  0.91775191  0.75672795  0.63903752     0.83200
O1965       O  0.74542225  0.57877346  0.68442676    -0.78900
C1966       C  0.83461846  0.75503753  0.70363470     0.83300
C1967       C  0.91827838  0.66417216  0.70388516     0.83600
O1968       O  0.88674900  0.66326620  0.71382389    -0.81300
loop_ 
_geom_bond_atom_site_label_1 
_geom_bond_atom_site_label_2 
_geom_bond_distance 
_geom_bond_site_symmetry_2 
_ccdc_geom_bond_type 
O1           C17   1.274       .  A
O1           Zn7   2.038       .  S
C2           O18   1.272       .  A
C2           O15   1.272       .  A
C2           C48   1.460       .  S
O3           C16   1.277       .  A
O3          Cd10   2.096       .  S
O4           C22   1.272       .  A
O4          Cd13   2.035       .  S
O5           C19   1.272       .  A
O5           Cd9   2.072       .  S
O6           C17   1.270       .  A
O6           Cd9   2.045       .  S
Zn7          O18   2.009       .  S
Zn7          O20   1.986       .  S
Zn7          O12   1.933       .  S
O8           C19   1.272       .  A
O8          Cd13   2.054       .  S
Cd9          O11   2.037       .  S
Cd9          O12   1.984       .  S
Cd10         O14   2.105       .  S
Cd10         O23   2.097       .  S
Cd10         O12   2.038       .  S
O11          C21   1.272       .  A
O12         Cd13   1.986       .  S
Cd13         O15   2.072       .  S
O14          C21   1.278       .  A
C16          O20   1.272       .  A
C16         C460   1.464       .  S
C17          C34   1.460       .  S
C19          C46   1.458       .  S
C21         C434   1.466       .  S
C22          O23   1.277       .  A
C22         C446   1.461       .  S
C24          C61   1.462       .  S
C24          N25   1.349       .  A
C24          N29   1.352       .  A
N25          C26   1.355       .  A
C26         C157   1.471       .  S
C26          N27   1.365       .  A
N27          C28   1.368       .  A
C28          C32   1.467       .  S
C28          N29   1.362       .  A
C30         C432   1.472       .  S
C30          N31   1.366       .  A
C30          N35   1.355       .  A
N31          C32   1.370       .  A
C32          N33   1.361       .  A
N33          C34   1.351       .  A
C34          N35   1.348       .  A
C36         C162   1.469   1_455  S
C36          N41   1.354       .  A
C36        N1021   1.366   1_455  A
N37        C1020   1.366       .  A
N37        C1022   1.370       .  A
C38          C44   1.465       .  S
C38          N39   1.361       .  A
C38        N1021   1.370   1_455  A
N39          C40   1.350       .  A
C40          C78   1.458       .  S
C40          N41   1.347       .  A
C42         C431   1.468       .  S
C42          N43   1.366       .  A
C42          N47   1.353       .  A
N43        C1028   1.369       .  A
C44          N45   1.361       .  A
C44        N1027   1.369   1_455  A
N45          C46   1.351       .  A
C46        N1031   1.346   1_455  A
N47        C1030   1.346       .  A
C48          N49   1.351       .  A
C48          N53   1.348       .  A
N49          C50   1.361       .  A
C50         C548   1.468       .  S
C50         N543   1.370       .  A
N51          C52   1.367       .  A
N51         C542   1.370   1_545  A
C52         C426   1.472       .  S
C52         N545   1.355       .  A
N53         C544   1.355       .  A
C54         C163   1.473       .  S
C54          N55   1.367   1_565  A
C54         N551   1.354       .  A
N55          C56   1.371   1_545  A
C56         C542   1.468       .  S
C56         N549   1.362       .  A
N57          C58   1.352       .  A
N57         C548   1.362       .  A
C58          C76   1.461       .  S
C58          N59   1.347       .  A
N59         C546   1.354       .  A
O60          C76   1.274       .  A
O60         Zn66   2.039       .  S
C61          O77   1.272       .  A
C61          O74   1.272       .  A
O62          C75   1.277       .  A
O62         Cd69   2.097       .  S
O63          C81   1.272       .  A
O63         Cd72   2.037       .  S
O64          C78   1.272       .  A
O64         Cd68   2.076       .  S
O65          C76   1.271       .  A
O65         Cd68   2.049       .  S
Zn66         O77   2.010       .  S
Zn66         O79   1.991       .  S
Zn66         O71   1.936       .  S
O67          C78   1.271       .  A
O67         Cd72   2.051       .  S
Cd68         O70   2.040       .  S
Cd68         O71   1.985       .  S
Cd69         O73   2.101       .  S
Cd69         O82   2.100       .  S
Cd69         O71   2.039       .  S
O70          C80   1.273       .  A
O71         Cd72   1.986       .  S
Cd72         O74   2.075       .  S
O73          C80   1.277       .  A
C75          O79   1.273       .  A
C75          C85   1.466       .  S
C80         C130   1.465       .  S
C81          O82   1.277       .  A
C81         C118   1.463       .  S
C83         C158   1.461       .  S
C83          N84   1.347       .  A
C83         N580   1.353       .  A
N84          C85   1.354       .  A
C85          N86   1.364       .  A
N86          C87   1.366       .  A
C87          C93   1.466       .  S
C87         N580   1.362       .  A
N88         C575   1.353       .  A
N88         C579   1.362       .  A
C89         C242   1.463       .  S
C89          N90   1.351       .  A
C89          N94   1.365       .  A
N90         C583   1.347       .  A
C91          C96   1.456       .  S
C91          N92   1.352       .  A
C91         N582   1.347       .  A
N92          C93   1.362       .  A
C93         N586   1.369       .  A
N94         C585   1.369   1_545  A
O95         C111   1.270       .  A
O95        Zn101   1.995       .  S
C96         O112   1.272       .  A
C96         O601   1.269       .  A
O97         C110   1.282       .  A
O97        Cd104   2.126       .  S
O98         C116   1.270       .  A
O98        Cd107   2.026       .  S
O99         C113   1.270       .  A
O99        Cd595   2.045   1_545  S
O100       C1095   1.271   1_455  A
O100       Cd103   2.068       .  S
Zn101       O112   2.028       .  S
Zn101       O114   1.977       .  S
Zn101       O106   1.933       .  S
O102        C113   1.270       .  A
O102      Cd1091   2.065       .  S
Cd103       O591   2.045       .  S
Cd103       O597   2.029       .  S
Cd103      O1090   1.984   1_455  S
Cd104      O1584   2.132       .  S
Cd104       O609   2.131       .  S
Cd104       O106   2.042       .  S
O105        C115   1.271   1_565  A
O105       Cd595   2.029       .  S
O106      Cd1087   1.984       .  S
O106       Cd599   1.983       .  S
Cd107       O109   2.038       .  S
Cd107      O1086   2.065       .  S
Cd107       O598   1.983   1_545  S
O108        C115   1.283       .  A
O108      Cd1580   2.132   1_445  S
O109        C588   1.269       .  A
C110        O114   1.271       .  A
C110        C194   1.473       .  S
C111       O1084   1.271       .  A
C111        C140   1.456       .  S
C113        C128   1.454       .  S
C115        C206   1.472       .  S
C116        O117   1.283       .  A
C116        C218   1.471       .  S
O117       Cd596   2.131   1_545  S
C118        N119   1.353       .  A
C118        N123   1.363       .  A
N119        C120   1.346       .  A
C120        C160   1.461       .  S
C120        N121   1.353       .  A
N121        C122   1.363       .  A
C122        C126   1.464       .  S
C122        N123   1.366       .  A
C124        C240   1.463       .  S
C124        N125   1.365       .  A
C124        N129   1.351       .  A
N125        C126   1.369       .  A
C126        N127   1.360       .  A
N127        C128   1.351       .  A
C128        N129   1.346       .  A
C130        N131   1.353       .  A
C130        N135   1.364       .  A
N131       C1116   1.346       .  A
C132        C143   1.459       .  S
C132        N133   1.352       .  A
C132       N1115   1.346       .  A
N133        C134   1.363       .  A
C134        C136   1.465       .  S
C134       N1119   1.367       .  A
N135       C1118   1.367       .  A
C136        N137   1.368       .  A
C136       N1125   1.361       .  A
N137        C138   1.364       .  A
C138        C225   1.463       .  S
C138        N139   1.352       .  A
N139        C140   1.347       .  A
C140       N1125   1.352       .  A
N141       C1120   1.361   1_455  A
N141       C1124   1.352   1_455  A
O142        C158   1.272       .  A
O142       Zn148   2.010       .  S
C143        O159   1.274       .  A
C143       O1140   1.271       .  A
O144        C157   1.279       .  A
O144       Cd151   2.112       .  S
O145        C163   1.274   1_545  A
O145       Cd646   2.047       .  S
O146        C160   1.271       .  A
O146      Cd1134   2.055   1_455  S
O147        C650   1.272   1_545  A
O147       Cd150   2.074       .  S
Zn148       O159   2.036       .  S
Zn148       O161   1.992       .  S
Zn148       O153   1.939       .  S
O149        C160   1.273       .  A
O149       Cd646   2.080       .  S
Cd150      O1130   2.055       .  S
Cd150      O1136   2.043       .  S
Cd150       O645   1.989   1_545  S
Cd151      O1631   2.114       .  S
Cd151      O1640   2.120       .  S
Cd151       O153   2.046       .  S
O152        C162   1.274       .  A
O152      Cd1134   2.043       .  S
O153       Cd642   1.989       .  S
O153      Cd1138   1.988       .  S
Cd154       O156   2.048       .  S
Cd154       O637   2.047       .  S
Cd154       O641   2.080       .  S
Cd154      O1137   1.988   1_455  S
O155        C162   1.280   1_455  A
O155      Cd1627   2.114   1_445  S
O156       C1127   1.271       .  A
C157        O161   1.273       .  A
C158        O639   1.272       .  A
C163        O164   1.280       .  A
O164      Cd1627   2.120   1_455  S
O165        C181   1.273       .  A
O165       Zn171   2.034       .  S
C166        O182   1.271       .  A
C166        O179   1.271       .  A
C166        C202   1.461       .  S
O167        C180   1.281       .  A
O167       Cd174   2.125       .  S
O168        C186   1.273       .  A
O168       Cd177   2.037   1_556  S
O169        C183   1.272       .  A
O169       Cd173   2.077       .  S
O170        C181   1.270       .  A
O170       Cd173   2.046       .  S
Zn171       O182   2.007       .  S
Zn171       O184   1.983   1_554  S
Zn171       O176   1.935   1_554  S
O172        C183   1.271       .  A
O172       Cd177   2.055       .  S
Cd173       O175   2.043   1_554  S
Cd173       O176   1.987   1_554  S
Cd174       O178   2.130       .  S
Cd174       O187   2.126       .  S
Cd174       O176   2.050       .  S
O175        C185   1.274       .  A
O176       Cd177   1.988   1_556  S
Cd177       O179   2.073       .  S
O178        C185   1.282       .  A
C180        O184   1.273       .  A
C180        C288   1.473       .  S
C181        C214   1.460       .  S
C183        C190   1.460       .  S
C185        C300   1.475       .  S
C186        O187   1.282       .  A
C186        C276   1.471       .  S
C188        C267   1.471       .  S
C188        N189   1.353       .  A
C188        N193   1.365       .  A
N189        C190   1.346       .  A
C190        N191   1.353       .  A
N191        C192   1.362       .  A
C192        C198   1.467       .  S
C192        N193   1.370       .  A
C194        N195   1.358       .  A
C194        N199   1.365       .  A
N195        C196   1.351       .  A
C196        C239   1.469       .  S
C196        N197   1.354       .  A
N197        C198   1.361       .  A
C198        N199   1.367       .  A
C200        C262   1.474       .  S
C200        N201   1.355       .  A
C200        N205   1.366       .  A
N201        C694   1.348       .  A
C202        N203   1.353       .  A
C202        N693   1.348   1_545  A
N203        C204   1.361       .  A
C204        C208   1.468       .  S
C204        N697   1.371   1_545  A
N205        C696   1.371       .  A
C206        N211   1.357       .  A
C206        N699   1.365       .  A
N207        C698   1.365       .  A
N207        C700   1.368       .  A
C208        N209   1.362       .  A
C208        N699   1.368       .  A
N209        C210   1.355       .  A
C210        C244   1.470       .  S
C210        N211   1.349       .  A
C212        C268   1.473       .  S
C212        N217   1.365       .  A
C212       N1197   1.354   1_455  A
N213        C214   1.348       .  A
N213       C1196   1.354       .  A
C214        N215   1.353       .  A
N215        C216   1.361       .  A
C216        C222   1.466       .  S
C216       N1201   1.370       .  A
N217       C1200   1.370   1_455  A
C218        N219   1.357       .  A
C218       N1207   1.363       .  A
N219        C220   1.350       .  A
C220        C245   1.471       .  S
C220        N221   1.355       .  A
N221        C222   1.363       .  A
C222       N1207   1.367       .  A
N223       C1202   1.363       .  A
N223       C1206   1.367       .  A
O224        C240   1.276       .  A
O224       Zn230   2.051       .  S
C225        O241   1.273       .  A
C225        O238   1.275       .  A
O226        C239   1.274       .  A
O226       Cd233   2.071       .  S
O227        C245   1.277       .  A
O227       Cd236   2.082       .  S
O228        C242   1.275       .  A
O228       Cd232   2.092       .  S
O229        C240   1.273       .  A
O229       Cd232   2.049       .  S
Zn230       O241   2.001       .  S
Zn230       O243   2.030       .  S
Zn230       O235   1.949       .  S
O231        C242   1.274       .  A
O231       Cd236   2.056       .  S
Cd232       O234   2.081       .  S
Cd232       O235   1.999       .  S
Cd233       O237   2.076       .  S
Cd233       O246   2.076       .  S
Cd233       O235   2.018       .  S
O234        C244   1.277       .  A
O235       Cd236   1.999       .  S
Cd236       O238   2.092       .  S
O237        C244   1.274       .  A
C239        O243   1.275       .  A
C245        O246   1.274       .  A
O247        C263   1.271       .  A
O247       Zn253   2.008       .  S
C248        O264   1.274       .  A
C248        O261   1.270       .  A
C248        C304   1.461       .  S
O249        C262   1.281       .  A
O249       Cd256   2.127       .  S
O250        C268   1.273       .  A
O250       Cd259   2.039   1_554  S
O251        C265   1.271       .  A
O251       Cd255   2.052       .  S
O252        C263   1.271       .  A
O252       Cd255   2.071       .  S
Zn253       O264   2.038       .  S
Zn253       O266   1.985   1_556  S
Zn253       O258   1.935   1_556  S
O254        C265   1.272       .  A
O254       Cd259   2.076       .  S
Cd255       O257   2.035   1_556  S
Cd255       O258   1.987   1_556  S
Cd256       O260   2.127       .  S
Cd256       O269   2.129       .  S
Cd256       O258   2.051       .  S
O257        C267   1.273       .  A
O258       Cd259   1.987   1_554  S
Cd259       O261   2.047       .  S
O260        C267   1.282       .  A
C262        O266   1.273       .  A
C263        C290   1.461       .  S
C265        C278   1.459       .  S
C268        O269   1.282       .  A
C270        C403   1.472       .  S
C270        N271   1.359       .  A
C270        N275   1.363       .  A
N271        C272   1.351       .  A
C272        C307   1.471       .  S
C272        N273   1.355       .  A
N273        C274   1.362       .  A
C274        C280   1.466       .  S
C274        N275   1.366       .  A
C276        N277   1.353       .  A
C276        N281   1.365       .  A
N277        C278   1.347       .  A
C278        N279   1.353       .  A
N279        C280   1.362       .  A
C280        N281   1.371       .  A
C282        C409   1.472       .  S
C282        N283   1.357       .  A
C282        N779   1.364       .  A
N283        C284   1.349       .  A
C284        C324   1.471       .  S
C284        N285   1.355       .  A
N285        C286   1.363       .  A
C286        C292   1.468       .  S
C286        N779   1.368       .  A
N287        C774   1.364       .  A
N287        C778   1.368       .  A
C288        N293   1.365       .  A
C288        N781   1.354   1_545  A
N289        C290   1.348       .  A
N289        C780   1.354       .  A
C290        N291   1.354       .  A
N291        C292   1.362       .  A
C292        N785   1.370       .  A
N293        C784   1.370   1_545  A
C294        C408   1.472       .  S
C294        N299   1.364       .  A
C294       N1279   1.357       .  A
N295        C296   1.350       .  A
N295       C1278   1.357       .  A
C296        C327   1.473       .  S
C296        N297   1.356       .  A
N297       C1282   1.364       .  A
C298       C1286   1.469       .  S
C298        N299   1.368       .  A
C298       N1281   1.364       .  A
C300        N301   1.366       .  A
C300        N305   1.354       .  A
N301       C1286   1.372       .  A
C302       C1282   1.469       .  S
C302        N303   1.362       .  A
C302       N1285   1.372   1_455  A
N303        C304   1.353       .  A
C304       N1289   1.348   1_455  A
N305       C1288   1.348       .  A
O306        C322   1.277       .  A
O306       Zn312   2.057       .  S
C307        O323   1.276       .  A
C307        O320   1.274       .  A
O308        C321   1.275       .  A
O308       Cd315   2.093       .  S
O309        C327   1.274       .  A
O309       Cd318   2.076       .  S
O310        C324   1.278       .  A
O310       Cd314   2.087       .  S
O311        C322   1.274       .  A
O311       Cd314   2.053       .  S
Zn312       O323   2.037       .  S
Zn312       O325   2.003       .  S
Zn312       O317   1.951       .  S
O313        C324   1.274       .  A
O313       Cd318   2.074       .  S
Cd314       O316   2.094       .  S
Cd314       O317   2.002       .  S
Cd315       O319   2.058       .  S
Cd315       O328   2.087       .  S
Cd315       O317   2.001       .  S
O316        C326   1.275       .  A
O317       Cd318   2.018       .  S
Cd318       O320   2.072       .  S
O319        C326   1.274       .  A
C321        O325   1.274       .  A
C321        C335   1.464       .  S
C322        C364   1.465       .  S
C326        C376   1.464       .  S
C327        O328   1.277       .  A
C329        C491   1.465       .  S
C329        N330   1.356       .  A
C329        N334   1.362       .  A
N330        C331   1.349       .  A
C331        C362   1.470       .  S
C331       N1316   1.354       .  A
N332        C333   1.363       .  A
N332       C1315   1.354       .  A
C333        C339   1.463       .  S
C333       N1318   1.364       .  A
N334       C1317   1.364       .  A
C335        N336   1.351       .  A
C335        N340   1.365       .  A
N336        C337   1.347       .  A
C337        C389   1.452       .  S
C337       N1322   1.350   1_455  A
N338       C1321   1.350       .  A
N338       C1323   1.358       .  A
C339        N340   1.369   1_655  A
C339       N1322   1.358       .  A
O341        C357   1.276   1_455  A
O341       Zn839   2.049       .  S
C342        O358   1.273       .  A
C342        O355   1.274       .  A
C342        C442   1.463       .  S
O343        C356   1.275       .  A
O343       Cd350   2.081   1_455  S
O344        C362   1.276       .  A
O344       Cd353   2.077       .  S
O345        C359   1.275       .  A
O345       Cd349   2.093       .  S
O346       C1341   1.272       .  A
O346       Cd349   2.046       .  S
Zn347       O358   1.999   1_565  S
Zn347       O360   2.026   1_565  S
Zn347       O833   2.049       .  S
Zn347       O352   1.946   1_465  S
O348        C851   1.274       .  A
O348       Cd353   2.056       .  S
Cd349       O351   2.075       .  S
Cd349      O1828   1.998       .  S
Cd350      O1830   2.085   1_545  S
Cd350      O1347   2.080       .  S
Cd350       O352   2.022       .  S
O351        C361   1.276       .  A
O352      Cd1825   1.998   1_545  S
O352      Cd1337   2.000   1_655  S
Cd353      O1339   2.091       .  S
Cd353      O1336   2.000       .  S
O354        C361   1.276       .  A
O354      Cd1826   2.085       .  S
O355      Cd1337   2.091       .  S
C356        O360   1.275       .  A
C356        C874   1.471       .  S
C357       O1330   1.272       .  A
C357       C1436   1.462       .  S
C359        O840   1.274       .  A
C359        C464   1.465       .  S
C361        C372   1.471       .  S
C362        O363   1.275       .  A
O363      Cd1334   2.080       .  S
C364        N365   1.350       .  A
C364        N369   1.366       .  A
N365        C366   1.346       .  A
C366        C406   1.451       .  S
C366        N367   1.350       .  A
N367        C368   1.359       .  A
C368        C374   1.465       .  S
C368        N369   1.370       .  A
C370        C490   1.465       .  S
C370        N371   1.356       .  A
C370        N375   1.362       .  A
N371        C372   1.349       .  A
C372        N373   1.355       .  A
N373        C374   1.364       .  A
C374        N375   1.365       .  A
C376        N377   1.350       .  A
C376        N381   1.365       .  A
N377        C870   1.346       .  A
C378        C404   1.453       .  S
C378        N379   1.352   1_565  A
C378        N869   1.346       .  A
N379        C380   1.360       .  A
C380        C878   1.466       .  S
C380        N873   1.370   1_545  A
N381        C872   1.370       .  A
C382        C848   1.471       .  S
C382        N387   1.354       .  A
C382        N875   1.351       .  A
N383        C384   1.358       .  A
N383        C874   1.351       .  A
C384        C485   1.469       .  S
C384        N385   1.363       .  A
N385        C878   1.365       .  A
C386        C872   1.466       .  S
C386        N387   1.362       .  A
C386        N877   1.365       .  A
O388        C404   1.271   1_545  A
O388       Zn394   2.019       .  S
C389        O405   1.269       .  A
C389       O1386   1.269   1_455  A
O390        C403   1.283       .  A
O390       Cd397   2.130   1_445  S
O391        C409   1.270       .  A
O391       Cd892   2.023       .  S
O392        C406   1.269       .  A
O392      Cd1380   2.061       .  S
O393        C896   1.269       .  A
O393       Cd396   2.035   1_455  S
Zn394       O405   1.988       .  S
Zn394       O407   1.971       .  S
Zn394       O399   1.931   1_455  S
O395        C406   1.269       .  A
O395       Cd892   2.043       .  S
Cd396      O1376   2.061       .  S
Cd396      O1382   2.025       .  S
Cd396       O891   1.981       .  S
Cd397      O1877   2.134   1_655  S
Cd397      O1886   2.135       .  S
Cd397       O399   2.039   1_565  S
O398        C408   1.270       .  A
O398      Cd1380   2.025       .  S
O399       Cd888   1.981   1_545  S
O399      Cd1384   1.981       .  S
Cd400       O402   2.059       .  S
Cd400       O883   2.023       .  S
Cd400       O887   2.043   1_545  S
Cd400      O1383   1.981       .  S
O401        C408   1.283       .  A
O401      Cd1873   2.134       .  S
O402       C1373   1.269       .  A
C403        O407   1.270       .  A
C404        O885   1.269       .  A
C409        O410   1.283       .  A
O410      Cd1873   2.136       .  S
O411        C427   1.273       .  A
O411       Zn417   2.013       .  S
C412        O428   1.274       .  A
C412        O425   1.271       .  A
C412        C436   1.462       .  S
O413        C426   1.278       .  A
O413       Cd420   2.111       .  S
O414        C432   1.274       .  A
O414       Cd423   2.046       .  S
O415        C429   1.272       .  A
O415       Cd419   2.060       .  S
O416        C427   1.272       .  A
O416       Cd419   2.077       .  S
Zn417       O428   2.041       .  S
Zn417       O430   1.997       .  S
Zn417       O422   1.939       .  S
O418        C429   1.272       .  A
O418       Cd423   2.078       .  S
Cd419       O421   2.044       .  S
Cd419       O422   1.991       .  S
Cd420       O424   2.111       .  S
Cd420       O433   2.118       .  S
Cd420       O422   2.047       .  S
O421        C431   1.274       .  A
O422       Cd423   1.990       .  S
Cd423       O425   2.050       .  S
O424        C431   1.279       .  A
C426        O430   1.274       .  A
C427        C458   1.463       .  S
C429        C448   1.461       .  S
C432        O433   1.280       .  A
C434        N435   1.355       .  A
C434        N439   1.364       .  A
N435        C436   1.347       .  A
C436        N437   1.352       .  A
N437        C438   1.363       .  A
C438        C444   1.464       .  S
C438        N439   1.367       .  A
C440        C486   1.454       .  S
C440        N441   1.347       .  A
C440        N445   1.350       .  A
N441        C442   1.352       .  A
C442        N443   1.365       .  A
N443        C444   1.368       .  A
C444        N445   1.360       .  A
C446        N447   1.353       .  A
C446        N451   1.363       .  A
N447       C1432   1.346   1_455  A
C448        N449   1.353       .  A
C448       N1431   1.346       .  A
N449        C450   1.363       .  A
C450        C454   1.463       .  S
C450       N1435   1.365       .  A
N451       C1434   1.365   1_455  A
C452       C1341   1.462       .  S
C452        N457   1.351       .  A
C452       N1437   1.365       .  A
N453       C1436   1.365   1_455  A
N453       C1438   1.369   1_455  A
C454        N455   1.359       .  A
C454       N1437   1.369       .  A
N455        C456   1.349       .  A
C456        C488   1.452       .  S
C456        N457   1.347       .  A
C458        N459   1.348   1_545  A
C458        N463   1.353       .  A
N459        C952   1.355       .  A
C460        N461   1.364       .  A
C460        N951   1.355       .  A
N461        C954   1.366       .  A
C462        C960   1.465       .  S
C462        N463   1.363       .  A
C462        N953   1.366   1_545  A
C464        N469   1.366       .  A
C464        N957   1.351       .  A
N465        C466   1.347       .  A
N465        C956   1.351       .  A
C466        C471   1.452       .  S
C466        N467   1.350       .  A
N467        C960   1.360       .  A
C468        C954   1.465       .  S
C468        N469   1.370       .  A
C468        N959   1.360       .  A
O470        C486   1.270       .  A
O470       Zn476   1.993       .  S
C471        O487   1.272       .  A
C471        O484   1.269       .  A
O472        C485   1.279       .  A
O472       Cd479   2.110       .  S
O473        C491   1.270       .  A
O473       Cd482   2.023       .  S
O474        C488   1.270       .  A
O474       Cd478   2.044       .  S
O475        C486   1.270       .  A
O475       Cd478   2.062       .  S
Zn476       O487   2.023       .  S
Zn476       O489   1.981       .  S
Zn476       O481   1.930       .  S
O477        C488   1.270       .  A
O477       Cd482   2.063       .  S
Cd478       O480   2.028       .  S
Cd478       O481   1.982       .  S
Cd479       O483   2.111       .  S
Cd479       O492   2.113       .  S
Cd479       O481   2.032       .  S
O480        C490   1.271       .  A
O481       Cd482   1.980       .  S
Cd482       O484   2.035       .  S
O483        C490   1.280       .  A
C485        O489   1.271       .  A
C491        O492   1.280       .  A
O493        C509   1.274       .  A
O493       Zn499   2.038       .  S
C494        O510   1.272       .  A
C494        O507   1.272       .  A
C494        C540   1.460       .  S
O495        C508   1.277       .  A
O495       Cd502   2.096       .  S
O496        C514   1.272       .  A
O496       Cd505   2.035       .  S
O497        C511   1.272       .  A
O497       Cd501   2.072       .  S
O498        C509   1.270       .  A
O498       Cd501   2.045       .  S
Zn499       O510   2.009       .  S
Zn499       O512   1.986       .  S
Zn499       O504   1.933       .  S
O500        C511   1.272       .  A
O500       Cd505   2.054       .  S
Cd501       O503   2.037       .  S
Cd501       O504   1.984       .  S
Cd502       O506   2.105       .  S
Cd502       O515   2.097       .  S
Cd502       O504   2.038       .  S
O503        C513   1.272       .  A
O504       Cd505   1.986       .  S
Cd505       O507   2.072       .  S
O506        C513   1.278       .  A
C508        O512   1.272       .  A
C508        C952   1.464       .  S
C509        C526   1.460       .  S
C511        C538   1.458       .  S
C513        C926   1.466       .  S
C514        O515   1.277       .  A
C514        C938   1.461       .  S
C516        C553   1.462       .  S
C516        N517   1.349       .  A
C516        N521   1.352       .  A
N517        C518   1.355       .  A
C518        C649   1.471       .  S
C518        N519   1.365       .  A
N519        C520   1.368       .  A
C520        C524   1.467       .  S
C520        N521   1.362       .  A
C522        C924   1.472       .  S
C522        N523   1.366       .  A
C522        N527   1.355       .  A
N523        C524   1.370       .  A
C524        N525   1.361       .  A
N525        C526   1.351       .  A
C526        N527   1.348       .  A
C528        C654   1.469   1_455  S
C528       N1513   1.366   1_455  A
C528        N533   1.354       .  A
N529       C1512   1.366       .  A
N529       C1514   1.370       .  A
C530        C536   1.465       .  S
C530       N1513   1.370   1_455  A
C530        N531   1.361       .  A
N531        C532   1.350       .  A
C532        C570   1.458       .  S
C532        N533   1.347       .  A
C534        C923   1.468       .  S
C534        N535   1.366       .  A
C534        N539   1.353       .  A
N535       C1520   1.369       .  A
C536       N1519   1.369   1_455  A
C536        N537   1.361       .  A
N537        C538   1.351       .  A
C538       N1523   1.346   1_455  A
N539       C1522   1.346       .  A
C540        N541   1.351       .  A
C540        N545   1.348   1_565  A
N541        C542   1.361       .  A
N543        C544   1.367       .  A
C544        C918   1.472       .  S
C546        C655   1.473       .  S
C546        N547   1.367       .  A
N547        C548   1.371       .  A
N549        C550   1.352       .  A
C550        C568   1.461       .  S
C550        N551   1.347       .  A
O552        C568   1.274       .  A
O552       Zn558   2.039       .  S
C553        O569   1.272       .  A
C553        O566   1.272       .  A
O554        C567   1.277       .  A
O554       Cd561   2.097       .  S
O555        C573   1.272       .  A
O555       Cd564   2.037       .  S
O556        C570   1.272       .  A
O556       Cd560   2.076       .  S
O557        C568   1.271       .  A
O557       Cd560   2.049       .  S
Zn558       O569   2.010       .  S
Zn558       O571   1.991       .  S
Zn558       O563   1.936       .  S
O559        C570   1.271       .  A
O559       Cd564   2.051       .  S
Cd560       O562   2.040       .  S
Cd560       O563   1.985       .  S
Cd561       O565   2.101       .  S
Cd561       O574   2.100       .  S
Cd561       O563   2.039       .  S
O562        C572   1.273       .  A
O563       Cd564   1.986       .  S
Cd564       O566   2.075       .  S
O565        C572   1.277       .  A
C567        O571   1.273       .  A
C567        C577   1.466       .  S
C572        C622   1.465       .  S
C573        O574   1.277       .  A
C573        C610   1.463       .  S
C575        C650   1.461       .  S
C575        N576   1.347       .  A
N576        C577   1.354       .  A
C577        N578   1.364       .  A
N578        C579   1.366       .  A
C579        C585   1.466       .  S
C581        C734   1.463       .  S
C581        N582   1.351       .  A
C581        N586   1.365       .  A
C583        C588   1.456       .  S
C583        N584   1.352   1_545  A
N584        C585   1.362       .  A
O587        C603   1.270       .  A
O587       Zn593   1.995       .  S
C588        O604   1.272   1_545  A
O589        C602   1.282       .  A
O589       Cd596   2.126       .  S
O590        C608   1.270       .  A
O590       Cd599   2.026       .  S
O591        C605   1.270       .  A
O592       C1587   1.271   1_455  A
O592       Cd595   2.068       .  S
Zn593       O604   2.028       .  S
Zn593       O606   1.977       .  S
Zn593       O598   1.933       .  S
O594        C605   1.270       .  A
O594      Cd1583   2.065       .  S
Cd595      O1582   1.984   1_455  S
Cd596      O1092   2.132   1_565  S
Cd596       O598   2.042       .  S
O597        C607   1.271       .  A
O598      Cd1579   1.984       .  S
Cd599      O1578   2.065       .  S
Cd599       O601   2.038       .  S
O600        C607   1.283       .  A
O600      Cd1088   2.132   1_455  S
C602        O606   1.271       .  A
C602        C686   1.473       .  S
C603       O1576   1.271       .  A
C603        C632   1.456       .  S
C605        C620   1.454       .  S
C607        C698   1.472       .  S
C608        O609   1.283       .  A
C608        C710   1.471       .  S
C610        N611   1.353       .  A
C610        N615   1.363       .  A
N611        C612   1.346       .  A
C612        C652   1.461       .  S
C612        N613   1.353       .  A
N613        C614   1.363       .  A
C614        C618   1.464       .  S
C614        N615   1.366       .  A
C616        C732   1.463       .  S
C616        N617   1.365       .  A
C616        N621   1.351       .  A
N617        C618   1.369       .  A
C618        N619   1.360       .  A
N619        C620   1.351       .  A
C620        N621   1.346       .  A
C622        N623   1.353       .  A
C622        N627   1.364       .  A
N623       C1608   1.346       .  A
C624        C635   1.459       .  S
C624       N1607   1.346       .  A
C624        N625   1.352       .  A
N625        C626   1.363       .  A
C626        C628   1.465       .  S
C626       N1611   1.367       .  A
N627       C1610   1.367       .  A
C628        N629   1.368       .  A
C628       N1617   1.361       .  A
N629        C630   1.364       .  A
C630        C717   1.463       .  S
C630        N631   1.352       .  A
N631        C632   1.347       .  A
C632       N1617   1.352       .  A
N633       C1612   1.361   1_455  A
N633       C1616   1.352   1_455  A
O634        C650   1.272       .  A
O634       Zn640   2.010       .  S
C635        O651   1.274       .  A
C635       O1632   1.271       .  A
O636        C649   1.279       .  A
O636       Cd643   2.112       .  S
O637        C655   1.274       .  A
O638        C652   1.271       .  A
O638      Cd1626   2.055   1_455  S
O639       Cd642   2.074       .  S
Zn640       O651   2.036       .  S
Zn640       O653   1.992       .  S
Zn640       O645   1.939       .  S
O641        C652   1.273       .  A
Cd642      O1622   2.055       .  S
Cd642      O1628   2.043       .  S
Cd643      O1139   2.114   1_565  S
Cd643      O1148   2.120       .  S
Cd643       O645   2.046       .  S
O644        C654   1.274       .  A
O644      Cd1626   2.043       .  S
O645      Cd1630   1.988   1_565  S
Cd646       O648   2.048   1_545  S
Cd646      O1629   1.988   1_445  S
O647        C654   1.280   1_455  A
O647      Cd1135   2.114   1_455  S
O648       C1619   1.271       .  A
C649        O653   1.273       .  A
C655        O656   1.280       .  A
O656      Cd1135   2.120   1_455  S
O657        C673   1.273       .  A
O657       Zn663   2.034       .  S
C658        O674   1.271       .  A
C658        O671   1.271       .  A
C658        C694   1.461       .  S
O659        C672   1.281       .  A
O659       Cd666   2.125       .  S
O660        C678   1.273       .  A
O660       Cd669   2.037   1_556  S
O661        C675   1.272       .  A
O661       Cd665   2.077       .  S
O662        C673   1.270       .  A
O662       Cd665   2.046       .  S
Zn663       O674   2.007       .  S
Zn663       O676   1.983   1_554  S
Zn663       O668   1.935   1_554  S
O664        C675   1.271       .  A
O664       Cd669   2.055       .  S
Cd665       O667   2.043   1_554  S
Cd665       O668   1.987   1_554  S
Cd666       O670   2.130       .  S
Cd666       O679   2.126       .  S
Cd666       O668   2.050       .  S
O667        C677   1.274       .  A
O668       Cd669   1.988   1_556  S
Cd669       O671   2.073       .  S
O670        C677   1.282       .  A
C672        O676   1.273       .  A
C672        C780   1.473       .  S
C673        C706   1.460       .  S
C675        C682   1.460       .  S
C677        C792   1.475       .  S
C678        O679   1.282       .  A
C678        C768   1.471       .  S
C680        C759   1.471       .  S
C680        N681   1.353       .  A
C680        N685   1.365       .  A
N681        C682   1.346       .  A
C682        N683   1.353       .  A
N683        C684   1.362       .  A
C684        C690   1.467       .  S
C684        N685   1.370       .  A
C686        N687   1.358       .  A
C686        N691   1.365       .  A
N687        C688   1.351       .  A
C688        C731   1.469       .  S
C688        N689   1.354       .  A
N689        C690   1.361       .  A
C690        N691   1.367       .  A
C692        C754   1.474       .  S
C692        N693   1.355       .  A
C692        N697   1.366       .  A
C694        N695   1.353       .  A
N695        C696   1.361       .  A
C696        C700   1.468       .  S
C698        N703   1.357       .  A
C700        N701   1.362       .  A
N701        C702   1.355       .  A
C702        C736   1.470       .  S
C702        N703   1.349       .  A
C704        C760   1.473       .  S
C704       N1689   1.354   1_455  A
C704        N709   1.365       .  A
N705       C1688   1.354       .  A
N705        C706   1.348       .  A
C706        N707   1.353       .  A
N707        C708   1.361       .  A
C708        C714   1.466       .  S
C708       N1693   1.370       .  A
N709       C1692   1.370   1_455  A
C710        N711   1.357       .  A
C710       N1699   1.363       .  A
N711        C712   1.350       .  A
C712        C737   1.471       .  S
C712        N713   1.355       .  A
N713        C714   1.363       .  A
C714       N1699   1.367       .  A
N715       C1694   1.363       .  A
N715       C1698   1.367       .  A
O716        C732   1.276       .  A
O716       Zn722   2.051       .  S
C717        O733   1.273       .  A
C717        O730   1.275       .  A
O718        C731   1.274       .  A
O718       Cd725   2.071       .  S
O719        C737   1.277       .  A
O719       Cd728   2.082       .  S
O720        C734   1.275       .  A
O720       Cd724   2.092       .  S
O721        C732   1.273       .  A
O721       Cd724   2.049       .  S
Zn722       O733   2.001       .  S
Zn722       O735   2.030       .  S
Zn722       O727   1.949       .  S
O723        C734   1.274       .  A
O723       Cd728   2.056       .  S
Cd724       O726   2.081       .  S
Cd724       O727   1.999       .  S
Cd725       O729   2.076       .  S
Cd725       O738   2.076       .  S
Cd725       O727   2.018       .  S
O726        C736   1.277       .  A
O727       Cd728   1.999       .  S
Cd728       O730   2.092       .  S
O729        C736   1.274       .  A
C731        O735   1.275       .  A
C737        O738   1.274       .  A
O739        C755   1.271       .  A
O739       Zn745   2.008       .  S
C740        O756   1.274       .  A
C740        O753   1.270       .  A
C740        C796   1.461       .  S
O741        C754   1.281       .  A
O741       Cd748   2.127       .  S
O742        C760   1.273       .  A
O742       Cd751   2.039   1_554  S
O743        C757   1.271       .  A
O743       Cd747   2.052       .  S
O744        C755   1.271       .  A
O744       Cd747   2.071       .  S
Zn745       O756   2.038       .  S
Zn745       O758   1.985   1_556  S
Zn745       O750   1.935   1_556  S
O746        C757   1.272       .  A
O746       Cd751   2.076       .  S
Cd747       O749   2.035   1_556  S
Cd747       O750   1.987   1_556  S
Cd748       O752   2.127       .  S
Cd748       O761   2.129       .  S
Cd748       O750   2.051       .  S
O749        C759   1.273       .  A
O750       Cd751   1.987   1_554  S
Cd751       O753   2.047       .  S
O752        C759   1.282       .  A
C754        O758   1.273       .  A
C755        C782   1.461       .  S
C757        C770   1.459       .  S
C760        O761   1.282       .  A
C762        C895   1.472       .  S
C762        N763   1.359       .  A
C762        N767   1.363       .  A
N763        C764   1.351       .  A
C764        C799   1.471       .  S
C764        N765   1.355       .  A
N765        C766   1.362       .  A
C766        C772   1.466       .  S
C766        N767   1.366       .  A
C768        N769   1.353       .  A
C768        N773   1.365       .  A
N769        C770   1.347       .  A
C770        N771   1.353       .  A
N771        C772   1.362       .  A
C772        N773   1.371       .  A
C774        C901   1.472       .  S
C774        N775   1.357       .  A
N775        C776   1.349       .  A
C776        C816   1.471       .  S
C776        N777   1.355       .  A
N777        C778   1.363       .  A
C778        C784   1.468       .  S
C780        N785   1.365       .  A
N781        C782   1.348       .  A
C782        N783   1.354       .  A
N783        C784   1.362       .  A
C786        C900   1.472       .  S
C786       N1771   1.357       .  A
C786        N791   1.364       .  A
N787       C1770   1.357       .  A
N787        C788   1.350       .  A
C788        C819   1.473       .  S
C788        N789   1.356       .  A
N789       C1774   1.364       .  A
C790       C1778   1.469       .  S
C790       N1773   1.364       .  A
C790        N791   1.368       .  A
C792        N793   1.366       .  A
C792        N797   1.354       .  A
N793       C1778   1.372       .  A
C794       C1774   1.469       .  S
C794       N1777   1.372   1_455  A
C794        N795   1.362       .  A
N795        C796   1.353       .  A
C796       N1781   1.348   1_455  A
N797       C1780   1.348       .  A
O798        C814   1.277       .  A
O798       Zn804   2.057       .  S
C799        O815   1.276       .  A
C799        O812   1.274       .  A
O800        C813   1.275       .  A
O800       Cd807   2.093       .  S
O801        C819   1.274       .  A
O801       Cd810   2.076       .  S
O802        C816   1.278       .  A
O802       Cd806   2.087       .  S
O803        C814   1.274       .  A
O803       Cd806   2.053       .  S
Zn804       O815   2.037       .  S
Zn804       O817   2.003       .  S
Zn804       O809   1.951       .  S
O805        C816   1.274       .  A
O805       Cd810   2.074       .  S
Cd806       O808   2.094       .  S
Cd806       O809   2.002       .  S
Cd807       O811   2.058       .  S
Cd807       O820   2.087       .  S
Cd807       O809   2.001       .  S
O808        C818   1.275       .  A
O809       Cd810   2.018       .  S
Cd810       O812   2.072       .  S
O811        C818   1.274       .  A
C813        O817   1.274       .  A
C813        C827   1.464       .  S
C814        C856   1.465       .  S
C818        C868   1.464       .  S
C819        O820   1.277       .  A
C821        C983   1.465       .  S
C821        N822   1.356       .  A
C821        N826   1.362       .  A
N822        C823   1.349       .  A
C823        C854   1.470       .  S
C823       N1808   1.354       .  A
N824       C1807   1.354       .  A
N824        C825   1.363       .  A
C825        C831   1.463       .  S
C825       N1810   1.364       .  A
N826       C1809   1.364       .  A
C827        N828   1.351       .  A
C827        N832   1.365       .  A
N828        C829   1.347       .  A
C829        C881   1.452       .  S
C829       N1814   1.350   1_455  A
N830       C1813   1.350       .  A
N830       C1815   1.358       .  A
C831       N1814   1.358       .  A
C831        N832   1.369   1_655  A
O833        C849   1.276   1_455  A
C834        O850   1.273       .  A
C834        O847   1.274       .  A
C834        C934   1.463       .  S
O835        C848   1.275       .  A
O835       Cd842   2.081   1_455  S
O836        C854   1.276       .  A
O836       Cd845   2.077       .  S
O837        C851   1.275   1_565  A
O837       Cd841   2.093       .  S
O838       C1833   1.272       .  A
O838       Cd841   2.046       .  S
Zn839       O850   1.999       .  S
Zn839       O852   2.026       .  S
Zn839       O844   1.946   1_455  S
O840       Cd845   2.056       .  S
Cd841       O843   2.075       .  S
Cd841      O1336   1.998   1_565  S
Cd842      O1338   2.085       .  S
Cd842      O1839   2.080       .  S
Cd842       O844   2.022       .  S
O843        C853   1.276       .  A
O844      Cd1333   1.998       .  S
O844      Cd1829   2.000   1_655  S
Cd845      O1831   2.091       .  S
Cd845      O1828   2.000       .  S
O846        C853   1.276       .  A
O846      Cd1334   2.085   1_565  S
O847      Cd1829   2.091       .  S
C848        O852   1.275       .  A
C849       O1822   1.272       .  A
C849       C1928   1.462       .  S
C851        C956   1.465       .  S
C853        C864   1.471       .  S
C854        O855   1.275       .  A
O855      Cd1826   2.080       .  S
C856        N857   1.350       .  A
C856        N861   1.366       .  A
N857        C858   1.346       .  A
C858        C898   1.451       .  S
C858        N859   1.350       .  A
N859        C860   1.359       .  A
C860        C866   1.465       .  S
C860        N861   1.370       .  A
C862        C982   1.465       .  S
C862        N863   1.356       .  A
C862        N867   1.362       .  A
N863        C864   1.349       .  A
C864        N865   1.355       .  A
N865        C866   1.364       .  A
C866        N867   1.365       .  A
C868        N869   1.350       .  A
C868        N873   1.365       .  A
C870        C896   1.453       .  S
C870        N871   1.352       .  A
N871        C872   1.360       .  A
C874        N879   1.354       .  A
N875        C876   1.358       .  A
C876        C977   1.469       .  S
C876        N877   1.363       .  A
C878        N879   1.362       .  A
O880        C896   1.271       .  A
O880       Zn886   2.019       .  S
C881        O897   1.269       .  A
C881       O1878   1.269   1_455  A
O882        C895   1.283       .  A
O882       Cd889   2.130   1_455  S
O883        C901   1.270   1_545  A
O884        C898   1.269       .  A
O884      Cd1872   2.061       .  S
O885       Cd888   2.035   1_455  S
Zn886       O897   1.988       .  S
Zn886       O899   1.971       .  S
Zn886       O891   1.931   1_455  S
O887        C898   1.269       .  A
Cd888      O1868   2.061       .  S
Cd888      O1874   2.025       .  S
Cd889      O1385   2.134   1_655  S
Cd889      O1394   2.136       .  S
Cd889       O891   2.039       .  S
O890        C900   1.270       .  A
O890      Cd1872   2.025       .  S
O891      Cd1876   1.981       .  S
Cd892       O894   2.059       .  S
Cd892      O1875   1.981       .  S
O893        C900   1.283       .  A
O893      Cd1381   2.134       .  S
O894       C1865   1.269       .  A
C895        O899   1.270       .  A
C901        O902   1.283       .  A
O902      Cd1381   2.135       .  S
O903        C919   1.273       .  A
O903       Zn909   2.013       .  S
C904        O920   1.274       .  A
C904        O917   1.271       .  A
C904        C928   1.462       .  S
O905        C918   1.278       .  A
O905       Cd912   2.111       .  S
O906        C924   1.274       .  A
O906       Cd915   2.046       .  S
O907        C921   1.272       .  A
O907       Cd911   2.060       .  S
O908        C919   1.272       .  A
O908       Cd911   2.077       .  S
Zn909       O920   2.041       .  S
Zn909       O922   1.997       .  S
Zn909       O914   1.939       .  S
O910        C921   1.272       .  A
O910       Cd915   2.078       .  S
Cd911       O913   2.044       .  S
Cd911       O914   1.991       .  S
Cd912       O916   2.111       .  S
Cd912       O925   2.118       .  S
Cd912       O914   2.047       .  S
O913        C923   1.274       .  A
O914       Cd915   1.990       .  S
Cd915       O917   2.050       .  S
O916        C923   1.279       .  A
C918        O922   1.274       .  A
C919        C950   1.463       .  S
C921        C940   1.461       .  S
C924        O925   1.280       .  A
C926        N927   1.355       .  A
C926        N931   1.364       .  A
N927        C928   1.347       .  A
C928        N929   1.352       .  A
N929        C930   1.363       .  A
C930        C936   1.464       .  S
C930        N931   1.367       .  A
C932        C978   1.454       .  S
C932        N933   1.347       .  A
C932        N937   1.350       .  A
N933        C934   1.352       .  A
C934        N935   1.365       .  A
N935        C936   1.368       .  A
C936        N937   1.360       .  A
C938        N939   1.353       .  A
C938        N943   1.363       .  A
N939       C1924   1.346   1_455  A
C940       N1923   1.346       .  A
C940        N941   1.353       .  A
N941        C942   1.363       .  A
C942        C946   1.463       .  S
C942       N1927   1.365       .  A
N943       C1926   1.365   1_455  A
C944       C1833   1.462       .  S
C944       N1929   1.365       .  A
C944        N949   1.351       .  A
N945       C1928   1.365   1_455  A
N945       C1930   1.369   1_455  A
C946       N1929   1.369       .  A
C946        N947   1.359       .  A
N947        C948   1.349       .  A
C948        C980   1.452       .  S
C948        N949   1.347       .  A
C950        N951   1.348       .  A
C950        N955   1.353       .  A
C952        N953   1.364       .  A
C954        N955   1.363       .  A
C956        N961   1.366   1_545  A
N957        C958   1.347       .  A
C958        C963   1.452       .  S
C958        N959   1.350       .  A
C960        N961   1.370   1_545  A
O962        C978   1.270       .  A
O962       Zn968   1.993       .  S
C963        O979   1.272       .  A
C963        O976   1.269       .  A
O964        C977   1.279       .  A
O964       Cd971   2.110       .  S
O965        C983   1.270       .  A
O965       Cd974   2.023       .  S
O966        C980   1.270       .  A
O966       Cd970   2.044       .  S
O967        C978   1.270       .  A
O967       Cd970   2.062       .  S
Zn968       O979   2.023       .  S
Zn968       O981   1.981       .  S
Zn968       O973   1.930       .  S
O969        C980   1.270       .  A
O969       Cd974   2.063       .  S
Cd970       O972   2.028       .  S
Cd970       O973   1.982       .  S
Cd971       O975   2.111       .  S
Cd971       O984   2.113       .  S
Cd971       O973   2.032       .  S
O972        C982   1.271       .  A
O973       Cd974   1.980       .  S
Cd974       O976   2.035       .  S
O975        C982   1.280       .  A
C977        O981   1.271       .  A
C983        O984   1.280       .  A
O985       C1001   1.274       .  A
O985       Zn991   2.038       .  S
C986       O1002   1.272       .  A
C986        O999   1.272       .  A
C986       C1032   1.460       .  S
O987       C1000   1.277       .  A
O987       Cd994   2.096       .  S
O988       C1006   1.272       .  A
O988       Cd997   2.035       .  S
O989       C1003   1.272       .  A
O989       Cd993   2.072       .  S
O990       C1001   1.270       .  A
O990       Cd993   2.045       .  S
Zn991      O1002   2.009       .  S
Zn991      O1004   1.986       .  S
Zn991       O996   1.933       .  S
O992       C1003   1.272       .  A
O992       Cd997   2.054       .  S
Cd993       O995   2.037       .  S
Cd993       O996   1.984       .  S
Cd994       O998   2.105       .  S
Cd994      O1007   2.097       .  S
Cd994       O996   2.038       .  S
O995       C1005   1.272       .  A
O996       Cd997   1.986       .  S
Cd997       O999   2.072       .  S
O998       C1005   1.278       .  A
C1000      O1004   1.272       .  A
C1000      C1444   1.464       .  S
C1001      C1018   1.460       .  S
C1003      C1030   1.458       .  S
C1005      C1418   1.466       .  S
C1006      O1007   1.277       .  A
C1006      C1430   1.461       .  S
C1008      C1045   1.462       .  S
C1008      N1009   1.349       .  A
C1008      N1013   1.352       .  A
N1009      C1010   1.355       .  A
C1010      C1141   1.471       .  S
C1010      N1011   1.365       .  A
N1011      C1012   1.368       .  A
C1012      C1016   1.467       .  S
C1012      N1013   1.362       .  A
C1014      C1416   1.472       .  S
C1014      N1015   1.366       .  A
C1014      N1019   1.355       .  A
N1015      C1016   1.370       .  A
C1016      N1017   1.361       .  A
N1017      C1018   1.351       .  A
C1018      N1019   1.348       .  A
C1020      C1146   1.469       .  S
C1020      N1025   1.354       .  A
C1022      C1028   1.465       .  S
C1022      N1023   1.361       .  A
N1023      C1024   1.350       .  A
C1024      C1062   1.458       .  S
C1024      N1025   1.347       .  A
C1026      C1415   1.468       .  S
C1026      N1027   1.366       .  A
C1026      N1031   1.353       .  A
C1028      N1029   1.361       .  A
N1029      C1030   1.351       .  A
C1032      N1033   1.351       .  A
C1032      N1037   1.348       .  A
N1033      C1034   1.361       .  A
C1034      C1532   1.468       .  S
C1034      N1527   1.370       .  A
N1035      C1526   1.370   1_545  A
N1035      C1036   1.367       .  A
C1036      C1410   1.472       .  S
C1036      N1529   1.355       .  A
N1037      C1528   1.355       .  A
C1038      C1147   1.473       .  S
C1038      N1039   1.367   1_565  A
C1038      N1535   1.354       .  A
N1039      C1040   1.371   1_545  A
C1040      C1526   1.468       .  S
C1040      N1533   1.362       .  A
N1041      C1532   1.362       .  A
N1041      C1042   1.352       .  A
C1042      C1060   1.461       .  S
C1042      N1043   1.347       .  A
N1043      C1530   1.354       .  A
O1044      C1060   1.274       .  A
O1044     Zn1050   2.039       .  S
C1045      O1061   1.272       .  A
C1045      O1058   1.272       .  A
O1046      C1059   1.277       .  A
O1046     Cd1053   2.097       .  S
O1047      C1065   1.272       .  A
O1047     Cd1056   2.037       .  S
O1048      C1062   1.272       .  A
O1048     Cd1052   2.076       .  S
O1049      C1060   1.271       .  A
O1049     Cd1052   2.049       .  S
Zn1050     O1061   2.010       .  S
Zn1050     O1063   1.991       .  S
Zn1050     O1055   1.936       .  S
O1051      C1062   1.271       .  A
O1051     Cd1056   2.051       .  S
Cd1052     O1054   2.040       .  S
Cd1052     O1055   1.985       .  S
Cd1053     O1057   2.101       .  S
Cd1053     O1066   2.100       .  S
Cd1053     O1055   2.039       .  S
O1054      C1064   1.273       .  A
O1055     Cd1056   1.986       .  S
Cd1056     O1058   2.075       .  S
O1057      C1064   1.277       .  A
C1059      O1063   1.273       .  A
C1059      C1069   1.466       .  S
C1064      C1114   1.465       .  S
C1065      O1066   1.277       .  A
C1065      C1102   1.463       .  S
C1067      C1142   1.461       .  S
C1067      N1068   1.347       .  A
C1067      N1564   1.353       .  A
N1068      C1069   1.354       .  A
C1069      N1070   1.364       .  A
N1070      C1071   1.366       .  A
C1071      C1077   1.466       .  S
C1071      N1564   1.362       .  A
N1072      C1559   1.353       .  A
N1072      C1563   1.362       .  A
C1073      C1226   1.463       .  S
C1073      N1074   1.351       .  A
C1073      N1078   1.365       .  A
N1074      C1567   1.347       .  A
C1075      C1080   1.456       .  S
C1075      N1566   1.347       .  A
C1075      N1076   1.352       .  A
N1076      C1077   1.362       .  A
C1077      N1570   1.369       .  A
N1078      C1569   1.369   1_545  A
O1079      C1095   1.270       .  A
O1079     Zn1085   1.995       .  S
C1080      O1096   1.272       .  A
C1080      O1585   1.269       .  A
O1081      C1094   1.282       .  A
O1081     Cd1088   2.126       .  S
O1082      C1100   1.270       .  A
O1082     Cd1091   2.026   1_655  S
O1083      C1097   1.270       .  A
O1083     Cd1579   2.045   1_545  S
O1084     Cd1087   2.068       .  S
Zn1085     O1096   2.028       .  S
Zn1085     O1098   1.977       .  S
Zn1085     O1090   1.933       .  S
O1086      C1097   1.270       .  A
Cd1087     O1575   2.045       .  S
Cd1087     O1581   2.029       .  S
Cd1088     O1593   2.131       .  S
Cd1088     O1090   2.042       .  S
O1089      C1099   1.271   1_565  A
O1089     Cd1579   2.029       .  S
O1090     Cd1583   1.983   1_655  S
Cd1091     O1093   2.038   1_455  S
Cd1091     O1582   1.983   1_445  S
O1092      C1099   1.283       .  A
O1093      C1572   1.269       .  A
C1094      O1098   1.271       .  A
C1094      C1178   1.473       .  S
C1095      C1124   1.456       .  S
C1097      C1112   1.454       .  S
C1099      C1190   1.472       .  S
C1100      O1101   1.283       .  A
C1100      C1202   1.471       .  S
O1101     Cd1580   2.131   1_545  S
C1102      N1103   1.353       .  A
C1102      N1107   1.363       .  A
N1103      C1104   1.346       .  A
C1104      C1144   1.461       .  S
C1104      N1105   1.353       .  A
N1105      C1106   1.363       .  A
C1106      C1110   1.464       .  S
C1106      N1107   1.366       .  A
C1108      C1224   1.463       .  S
C1108      N1109   1.365       .  A
C1108      N1113   1.351       .  A
N1109      C1110   1.369       .  A
C1110      N1111   1.360       .  A
N1111      C1112   1.351       .  A
C1112      N1113   1.346       .  A
C1114      N1115   1.353       .  A
C1114      N1119   1.364       .  A
C1116      C1127   1.459       .  S
C1116      N1117   1.352   1_455  A
N1117      C1118   1.363   1_655  A
C1118      C1120   1.465   1_455  S
C1120      N1121   1.368       .  A
N1121      C1122   1.364       .  A
C1122      C1209   1.463       .  S
C1122      N1123   1.352       .  A
N1123      C1124   1.347       .  A
O1126      C1142   1.272       .  A
O1126     Zn1132   2.010       .  S
C1127      O1143   1.274   1_455  A
O1128      C1141   1.279       .  A
O1128     Cd1135   2.112       .  S
O1129      C1147   1.274   1_545  A
O1129     Cd1630   2.047       .  S
O1130      C1144   1.271       .  A
O1131      C1634   1.272   1_545  A
O1131     Cd1134   2.074       .  S
Zn1132     O1143   2.036       .  S
Zn1132     O1145   1.992       .  S
Zn1132     O1137   1.939       .  S
O1133      C1144   1.273       .  A
O1133     Cd1630   2.080       .  S
Cd1134     O1629   1.989   1_545  S
Cd1135     O1137   2.046       .  S
O1136      C1146   1.274       .  A
O1137     Cd1626   1.989       .  S
Cd1138     O1621   2.047       .  S
Cd1138     O1625   2.080       .  S
Cd1138     O1140   2.048       .  S
O1139      C1146   1.280       .  A
C1141      O1145   1.273       .  A
C1142      O1623   1.272       .  A
C1147      O1148   1.280       .  A
O1149      C1165   1.273       .  A
O1149     Zn1155   2.034       .  S
C1150      O1166   1.271       .  A
C1150      O1163   1.271       .  A
C1150      C1186   1.461       .  S
O1151      C1164   1.281       .  A
O1151     Cd1158   2.125       .  S
O1152      C1170   1.273       .  A
O1152     Cd1161   2.037   1_556  S
O1153      C1167   1.272       .  A
O1153     Cd1157   2.077       .  S
O1154      C1165   1.270       .  A
O1154     Cd1157   2.046       .  S
Zn1155     O1166   2.007       .  S
Zn1155     O1168   1.983   1_554  S
Zn1155     O1160   1.935   1_554  S
O1156      C1167   1.271       .  A
O1156     Cd1161   2.055       .  S
Cd1157     O1159   2.043   1_554  S
Cd1157     O1160   1.987   1_554  S
Cd1158     O1162   2.130       .  S
Cd1158     O1171   2.126       .  S
Cd1158     O1160   2.050       .  S
O1159      C1169   1.274       .  A
O1160     Cd1161   1.988   1_556  S
Cd1161     O1163   2.073       .  S
O1162      C1169   1.282       .  A
C1164      O1168   1.273       .  A
C1164      C1272   1.473       .  S
C1165      C1198   1.460       .  S
C1167      C1174   1.460       .  S
C1169      C1284   1.475       .  S
C1170      O1171   1.282       .  A
C1170      C1260   1.471       .  S
C1172      C1251   1.471       .  S
C1172      N1173   1.353       .  A
C1172      N1177   1.365       .  A
N1173      C1174   1.346       .  A
C1174      N1175   1.353       .  A
N1175      C1176   1.362       .  A
C1176      C1182   1.467       .  S
C1176      N1177   1.370       .  A
C1178      N1179   1.358       .  A
C1178      N1183   1.365       .  A
N1179      C1180   1.351       .  A
C1180      C1223   1.469       .  S
C1180      N1181   1.354       .  A
N1181      C1182   1.361       .  A
C1182      N1183   1.367       .  A
C1184      C1246   1.474       .  S
C1184      N1185   1.355       .  A
C1184      N1189   1.366       .  A
N1185      C1678   1.348       .  A
C1186      N1677   1.348   1_545  A
C1186      N1187   1.353       .  A
N1187      C1188   1.361       .  A
C1188      C1192   1.468       .  S
C1188      N1681   1.371   1_545  A
N1189      C1680   1.371       .  A
C1190      N1683   1.365       .  A
C1190      N1195   1.357       .  A
N1191      C1682   1.365       .  A
N1191      C1684   1.368       .  A
C1192      N1683   1.368       .  A
C1192      N1193   1.362       .  A
N1193      C1194   1.355       .  A
C1194      C1228   1.470       .  S
C1194      N1195   1.349       .  A
C1196      C1252   1.473       .  S
C1196      N1201   1.365       .  A
N1197      C1198   1.348       .  A
C1198      N1199   1.353       .  A
N1199      C1200   1.361       .  A
C1200      C1206   1.466       .  S
C1202      N1203   1.357       .  A
N1203      C1204   1.350       .  A
C1204      C1229   1.471       .  S
C1204      N1205   1.355       .  A
N1205      C1206   1.363       .  A
O1208      C1224   1.276       .  A
O1208     Zn1214   2.051       .  S
C1209      O1225   1.273       .  A
C1209      O1222   1.275       .  A
O1210      C1223   1.274       .  A
O1210     Cd1217   2.071       .  S
O1211      C1229   1.277       .  A
O1211     Cd1220   2.082       .  S
O1212      C1226   1.275       .  A
O1212     Cd1216   2.092       .  S
O1213      C1224   1.273       .  A
O1213     Cd1216   2.049       .  S
Zn1214     O1225   2.001       .  S
Zn1214     O1227   2.030       .  S
Zn1214     O1219   1.949       .  S
O1215      C1226   1.274       .  A
O1215     Cd1220   2.056       .  S
Cd1216     O1218   2.081       .  S
Cd1216     O1219   1.999       .  S
Cd1217     O1221   2.076       .  S
Cd1217     O1230   2.076       .  S
Cd1217     O1219   2.018       .  S
O1218      C1228   1.277       .  A
O1219     Cd1220   1.999       .  S
Cd1220     O1222   2.092       .  S
O1221      C1228   1.274       .  A
C1223      O1227   1.275       .  A
C1229      O1230   1.274       .  A
O1231      C1247   1.271       .  A
O1231     Zn1237   2.008       .  S
C1232      O1248   1.274       .  A
C1232      O1245   1.270       .  A
C1232      C1288   1.461       .  S
O1233      C1246   1.281       .  A
O1233     Cd1240   2.127       .  S
O1234      C1252   1.273       .  A
O1234     Cd1243   2.039   1_554  S
O1235      C1249   1.271       .  A
O1235     Cd1239   2.052       .  S
O1236      C1247   1.271       .  A
O1236     Cd1239   2.071       .  S
Zn1237     O1248   2.038       .  S
Zn1237     O1250   1.985   1_556  S
Zn1237     O1242   1.935   1_556  S
O1238      C1249   1.272       .  A
O1238     Cd1243   2.076       .  S
Cd1239     O1241   2.035   1_556  S
Cd1239     O1242   1.987   1_556  S
Cd1240     O1244   2.127       .  S
Cd1240     O1253   2.129       .  S
Cd1240     O1242   2.051       .  S
O1241      C1251   1.273       .  A
O1242     Cd1243   1.987   1_554  S
Cd1243     O1245   2.047       .  S
O1244      C1251   1.282       .  A
C1246      O1250   1.273       .  A
C1247      C1274   1.461       .  S
C1249      C1262   1.459       .  S
C1252      O1253   1.282       .  A
C1254      C1387   1.472       .  S
C1254      N1255   1.359       .  A
C1254      N1259   1.363       .  A
N1255      C1256   1.351       .  A
C1256      C1291   1.471       .  S
C1256      N1257   1.355       .  A
N1257      C1258   1.362       .  A
C1258      C1264   1.466       .  S
C1258      N1259   1.366       .  A
C1260      N1261   1.353       .  A
C1260      N1265   1.365       .  A
N1261      C1262   1.347       .  A
C1262      N1263   1.353       .  A
N1263      C1264   1.362       .  A
C1264      N1265   1.371       .  A
C1266      C1393   1.472       .  S
C1266      N1267   1.357       .  A
C1266      N1763   1.364       .  A
N1267      C1268   1.349       .  A
C1268      C1308   1.471       .  S
C1268      N1269   1.355       .  A
N1269      C1270   1.363       .  A
C1270      C1276   1.468       .  S
C1270      N1763   1.368       .  A
N1271      C1758   1.364       .  A
N1271      C1762   1.368       .  A
C1272      N1765   1.354   1_545  A
C1272      N1277   1.365       .  A
N1273      C1764   1.354       .  A
N1273      C1274   1.348       .  A
C1274      N1275   1.354       .  A
N1275      C1276   1.362       .  A
C1276      N1769   1.370       .  A
N1277      C1768   1.370   1_545  A
C1278      C1392   1.472       .  S
C1278      N1283   1.364       .  A
N1279      C1280   1.350       .  A
C1280      C1311   1.473       .  S
C1280      N1281   1.356       .  A
C1282      N1283   1.368       .  A
C1284      N1285   1.366       .  A
C1284      N1289   1.354       .  A
C1286      N1287   1.362       .  A
N1287      C1288   1.353       .  A
O1290      C1306   1.277       .  A
O1290     Zn1296   2.057       .  S
C1291      O1307   1.276       .  A
C1291      O1304   1.274       .  A
O1292      C1305   1.275       .  A
O1292     Cd1299   2.093       .  S
O1293      C1311   1.274       .  A
O1293     Cd1302   2.076       .  S
O1294      C1308   1.278       .  A
O1294     Cd1298   2.087       .  S
O1295      C1306   1.274       .  A
O1295     Cd1298   2.053       .  S
Zn1296     O1307   2.037       .  S
Zn1296     O1309   2.003       .  S
Zn1296     O1301   1.951       .  S
O1297      C1308   1.274       .  A
O1297     Cd1302   2.074       .  S
Cd1298     O1300   2.094       .  S
Cd1298     O1301   2.002       .  S
Cd1299     O1303   2.058       .  S
Cd1299     O1312   2.087       .  S
Cd1299     O1301   2.001       .  S
O1300      C1310   1.275       .  A
O1301     Cd1302   2.018       .  S
Cd1302     O1304   2.072       .  S
O1303      C1310   1.274       .  A
C1305      O1309   1.274       .  A
C1305      C1319   1.464       .  S
C1306      C1348   1.465       .  S
C1310      C1360   1.464       .  S
C1311      O1312   1.277       .  A
C1313      C1475   1.465       .  S
C1313      N1314   1.356       .  A
C1313      N1318   1.362       .  A
N1314      C1315   1.349       .  A
C1315      C1346   1.470       .  S
N1316      C1317   1.363       .  A
C1317      C1323   1.463       .  S
C1319      N1320   1.351       .  A
C1319      N1324   1.365       .  A
N1320      C1321   1.347       .  A
C1321      C1373   1.452       .  S
C1323      N1324   1.369       .  A
O1325      C1341   1.276       .  A
O1325     Zn1823   2.049       .  S
C1326      O1342   1.273       .  A
C1326      O1339   1.274       .  A
C1326      C1426   1.463       .  S
O1327      C1340   1.275       .  A
O1327     Cd1334   2.081       .  S
O1328      C1346   1.276       .  A
O1328     Cd1337   2.077   1_655  S
O1329      C1343   1.275       .  A
O1329     Cd1333   2.093       .  S
O1330     Cd1333   2.046       .  S
Zn1331     O1817   2.049       .  S
Zn1331     O1342   1.999   1_565  S
Zn1331     O1344   2.026   1_565  S
Zn1331     O1336   1.946   1_565  S
O1332      C1835   1.274       .  A
O1332     Cd1337   2.056   1_655  S
Cd1333     O1335   2.075       .  S
Cd1334     O1336   2.022       .  S
O1335      C1345   1.276       .  A
O1338      C1345   1.276       .  A
C1340      O1344   1.275       .  A
C1340      C1858   1.471       .  S
C1343      O1824   1.274       .  A
C1343      C1448   1.465       .  S
C1345      C1356   1.471       .  S
C1346      O1347   1.275       .  A
C1348      N1349   1.350       .  A
C1348      N1353   1.366       .  A
N1349      C1350   1.346       .  A
C1350      C1390   1.451       .  S
C1350      N1351   1.350       .  A
N1351      C1352   1.359       .  A
C1352      C1358   1.465       .  S
C1352      N1353   1.370       .  A
C1354      C1474   1.465       .  S
C1354      N1355   1.356       .  A
C1354      N1359   1.362       .  A
N1355      C1356   1.349       .  A
C1356      N1357   1.355       .  A
N1357      C1358   1.364       .  A
C1358      N1359   1.365       .  A
C1360      N1361   1.350       .  A
C1360      N1365   1.365       .  A
N1361      C1854   1.346       .  A
C1362      C1388   1.453       .  S
C1362      N1853   1.346       .  A
C1362      N1363   1.352   1_565  A
N1363      C1364   1.360       .  A
C1364      C1862   1.466       .  S
C1364      N1857   1.370   1_545  A
N1365      C1856   1.370       .  A
C1366      C1832   1.471       .  S
C1366      N1859   1.351       .  A
C1366      N1371   1.354       .  A
N1367      C1858   1.351       .  A
N1367      C1368   1.358       .  A
C1368      C1469   1.469       .  S
C1368      N1369   1.363       .  A
N1369      C1862   1.365       .  A
C1370      C1856   1.466       .  S
C1370      N1861   1.365       .  A
C1370      N1371   1.362       .  A
O1372      C1388   1.271   1_545  A
O1372     Zn1378   2.019       .  S
C1373      O1389   1.269       .  A
O1374      C1387   1.283       .  A
O1374     Cd1381   2.130   1_545  S
O1375      C1393   1.270       .  A
O1375     Cd1876   2.023       .  S
O1376      C1390   1.269       .  A
O1377      C1880   1.269       .  A
O1377     Cd1380   2.035       .  S
Zn1378     O1389   1.988       .  S
Zn1378     O1391   1.971       .  S
Zn1378     O1383   1.931       .  S
O1379      C1390   1.269       .  A
O1379     Cd1876   2.043       .  S
Cd1380     O1875   1.981       .  S
Cd1381     O1383   2.039   1_565  S
O1382      C1392   1.270   1_655  A
O1383     Cd1872   1.981   1_545  S
Cd1384     O1867   2.023       .  S
Cd1384     O1871   2.043   1_545  S
Cd1384     O1386   2.059       .  S
O1385      C1392   1.283       .  A
C1387      O1391   1.270       .  A
C1388      O1869   1.269       .  A
C1393      O1394   1.283       .  A
O1395      C1411   1.273       .  A
O1395     Zn1401   2.013       .  S
C1396      O1412   1.274       .  A
C1396      O1409   1.271       .  A
C1396      C1420   1.462       .  S
O1397      C1410   1.278       .  A
O1397     Cd1404   2.111       .  S
O1398      C1416   1.274       .  A
O1398     Cd1407   2.046       .  S
O1399      C1413   1.272       .  A
O1399     Cd1403   2.060       .  S
O1400      C1411   1.272       .  A
O1400     Cd1403   2.077       .  S
Zn1401     O1412   2.041       .  S
Zn1401     O1414   1.997       .  S
Zn1401     O1406   1.939       .  S
O1402      C1413   1.272       .  A
O1402     Cd1407   2.078       .  S
Cd1403     O1405   2.044       .  S
Cd1403     O1406   1.991       .  S
Cd1404     O1408   2.111       .  S
Cd1404     O1417   2.118       .  S
Cd1404     O1406   2.047       .  S
O1405      C1415   1.274       .  A
O1406     Cd1407   1.990       .  S
Cd1407     O1409   2.050       .  S
O1408      C1415   1.279       .  A
C1410      O1414   1.274       .  A
C1411      C1442   1.463       .  S
C1413      C1432   1.461       .  S
C1416      O1417   1.280       .  A
C1418      N1419   1.355       .  A
C1418      N1423   1.364       .  A
N1419      C1420   1.347       .  A
C1420      N1421   1.352       .  A
N1421      C1422   1.363       .  A
C1422      C1428   1.464       .  S
C1422      N1423   1.367       .  A
C1424      C1470   1.454       .  S
C1424      N1425   1.347       .  A
C1424      N1429   1.350       .  A
N1425      C1426   1.352       .  A
C1426      N1427   1.365       .  A
N1427      C1428   1.368       .  A
C1428      N1429   1.360       .  A
C1430      N1431   1.353       .  A
C1430      N1435   1.363       .  A
C1432      N1433   1.353       .  A
N1433      C1434   1.363       .  A
C1434      C1438   1.463       .  S
C1436      N1441   1.351       .  A
C1438      N1439   1.359       .  A
N1439      C1440   1.349       .  A
C1440      C1472   1.452       .  S
C1440      N1441   1.347       .  A
C1442      N1443   1.348   1_545  A
C1442      N1447   1.353       .  A
N1443      C1936   1.355       .  A
C1444      N1935   1.355       .  A
C1444      N1445   1.364       .  A
N1445      C1938   1.366       .  A
C1446      C1944   1.465       .  S
C1446      N1937   1.366   1_545  A
C1446      N1447   1.363       .  A
C1448      N1941   1.351       .  A
C1448      N1453   1.366       .  A
N1449      C1940   1.351       .  A
N1449      C1450   1.347       .  A
C1450      C1455   1.452       .  S
C1450      N1451   1.350       .  A
N1451      C1944   1.360       .  A
C1452      C1938   1.465       .  S
C1452      N1943   1.360       .  A
C1452      N1453   1.370       .  A
O1454      C1470   1.270       .  A
O1454     Zn1460   1.993       .  S
C1455      O1471   1.272       .  A
C1455      O1468   1.269       .  A
O1456      C1469   1.279       .  A
O1456     Cd1463   2.110       .  S
O1457      C1475   1.270       .  A
O1457     Cd1466   2.023       .  S
O1458      C1472   1.270       .  A
O1458     Cd1462   2.044       .  S
O1459      C1470   1.270       .  A
O1459     Cd1462   2.062       .  S
Zn1460     O1471   2.023       .  S
Zn1460     O1473   1.981       .  S
Zn1460     O1465   1.930       .  S
O1461      C1472   1.270       .  A
O1461     Cd1466   2.063       .  S
Cd1462     O1464   2.028       .  S
Cd1462     O1465   1.982       .  S
Cd1463     O1467   2.111       .  S
Cd1463     O1476   2.113       .  S
Cd1463     O1465   2.032       .  S
O1464      C1474   1.271       .  A
O1465     Cd1466   1.980       .  S
Cd1466     O1468   2.035       .  S
O1467      C1474   1.280       .  A
C1469      O1473   1.271       .  A
C1475      O1476   1.280       .  A
O1477      C1493   1.274       .  A
O1477     Zn1483   2.038       .  S
C1478      O1494   1.272       .  A
C1478      O1491   1.272       .  A
C1478      C1524   1.460       .  S
O1479      C1492   1.277       .  A
O1479     Cd1486   2.096       .  S
O1480      C1498   1.272       .  A
O1480     Cd1489   2.035       .  S
O1481      C1495   1.272       .  A
O1481     Cd1485   2.072       .  S
O1482      C1493   1.270       .  A
O1482     Cd1485   2.045       .  S
Zn1483     O1494   2.009       .  S
Zn1483     O1496   1.986       .  S
Zn1483     O1488   1.933       .  S
O1484      C1495   1.272       .  A
O1484     Cd1489   2.054       .  S
Cd1485     O1487   2.037       .  S
Cd1485     O1488   1.984       .  S
Cd1486     O1490   2.105       .  S
Cd1486     O1499   2.097       .  S
Cd1486     O1488   2.038       .  S
O1487      C1497   1.272       .  A
O1488     Cd1489   1.986       .  S
Cd1489     O1491   2.072       .  S
O1490      C1497   1.278       .  A
C1492      O1496   1.272       .  A
C1492      C1936   1.464       .  S
C1493      C1510   1.460       .  S
C1495      C1522   1.458       .  S
C1497      C1910   1.466       .  S
C1498      O1499   1.277       .  A
C1498      C1922   1.461       .  S
C1500      C1537   1.462       .  S
C1500      N1501   1.349       .  A
C1500      N1505   1.352       .  A
N1501      C1502   1.355       .  A
C1502      C1633   1.471       .  S
C1502      N1503   1.365       .  A
N1503      C1504   1.368       .  A
C1504      C1508   1.467       .  S
C1504      N1505   1.362       .  A
C1506      C1908   1.472       .  S
C1506      N1507   1.366       .  A
C1506      N1511   1.355       .  A
N1507      C1508   1.370       .  A
C1508      N1509   1.361       .  A
N1509      C1510   1.351       .  A
C1510      N1511   1.348       .  A
C1512      C1638   1.469       .  S
C1512      N1517   1.354       .  A
C1514      C1520   1.465       .  S
C1514      N1515   1.361       .  A
N1515      C1516   1.350       .  A
C1516      C1554   1.458       .  S
C1516      N1517   1.347       .  A
C1518      C1907   1.468       .  S
C1518      N1519   1.366       .  A
C1518      N1523   1.353       .  A
C1520      N1521   1.361       .  A
N1521      C1522   1.351       .  A
C1524      N1525   1.351       .  A
C1524      N1529   1.348   1_565  A
N1525      C1526   1.361       .  A
N1527      C1528   1.367       .  A
C1528      C1902   1.472       .  S
C1530      C1639   1.473       .  S
C1530      N1531   1.367       .  A
N1531      C1532   1.371       .  A
N1533      C1534   1.352       .  A
C1534      C1552   1.461       .  S
C1534      N1535   1.347       .  A
O1536      C1552   1.274       .  A
O1536     Zn1542   2.039       .  S
C1537      O1553   1.272       .  A
C1537      O1550   1.272       .  A
O1538      C1551   1.277       .  A
O1538     Cd1545   2.097       .  S
O1539      C1557   1.272       .  A
O1539     Cd1548   2.037       .  S
O1540      C1554   1.272       .  A
O1540     Cd1544   2.076       .  S
O1541      C1552   1.271       .  A
O1541     Cd1544   2.049       .  S
Zn1542     O1553   2.010       .  S
Zn1542     O1555   1.991       .  S
Zn1542     O1547   1.936       .  S
O1543      C1554   1.271       .  A
O1543     Cd1548   2.051       .  S
Cd1544     O1546   2.040       .  S
Cd1544     O1547   1.985       .  S
Cd1545     O1549   2.101       .  S
Cd1545     O1558   2.100       .  S
Cd1545     O1547   2.039       .  S
O1546      C1556   1.273       .  A
O1547     Cd1548   1.986       .  S
Cd1548     O1550   2.075       .  S
O1549      C1556   1.277       .  A
C1551      O1555   1.273       .  A
C1551      C1561   1.466       .  S
C1556      C1606   1.465       .  S
C1557      O1558   1.277       .  A
C1557      C1594   1.463       .  S
C1559      C1634   1.461       .  S
C1559      N1560   1.347       .  A
N1560      C1561   1.354       .  A
C1561      N1562   1.364       .  A
N1562      C1563   1.366       .  A
C1563      C1569   1.466       .  S
C1565      C1718   1.463       .  S
C1565      N1566   1.351       .  A
C1565      N1570   1.365       .  A
C1567      C1572   1.456       .  S
C1567      N1568   1.352   1_545  A
N1568      C1569   1.362       .  A
O1571      C1587   1.270       .  A
O1571     Zn1577   1.995       .  S
C1572      O1588   1.272   1_545  A
O1573      C1586   1.282       .  A
O1573     Cd1580   2.126       .  S
O1574      C1592   1.270       .  A
O1574     Cd1583   2.026   1_655  S
O1575      C1589   1.270       .  A
O1576     Cd1579   2.068       .  S
Zn1577     O1588   2.028       .  S
Zn1577     O1590   1.977       .  S
Zn1577     O1582   1.933       .  S
O1578      C1589   1.270       .  A
Cd1580     O1582   2.042       .  S
O1581      C1591   1.271       .  A
Cd1583     O1585   2.038   1_455  S
O1584      C1591   1.283       .  A
C1586      O1590   1.271       .  A
C1586      C1670   1.473       .  S
C1587      C1616   1.456       .  S
C1589      C1604   1.454       .  S
C1591      C1682   1.472       .  S
C1592      O1593   1.283       .  A
C1592      C1694   1.471       .  S
C1594      N1595   1.353       .  A
C1594      N1599   1.363       .  A
N1595      C1596   1.346       .  A
C1596      C1636   1.461       .  S
C1596      N1597   1.353       .  A
N1597      C1598   1.363       .  A
C1598      C1602   1.464       .  S
C1598      N1599   1.366       .  A
C1600      C1716   1.463       .  S
C1600      N1601   1.365       .  A
C1600      N1605   1.351       .  A
N1601      C1602   1.369       .  A
C1602      N1603   1.360       .  A
N1603      C1604   1.351       .  A
C1604      N1605   1.346       .  A
C1606      N1607   1.353       .  A
C1606      N1611   1.364       .  A
C1608      C1619   1.459       .  S
C1608      N1609   1.352   1_455  A
N1609      C1610   1.363   1_655  A
C1610      C1612   1.465   1_455  S
C1612      N1613   1.368       .  A
N1613      C1614   1.364       .  A
C1614      C1701   1.463       .  S
C1614      N1615   1.352       .  A
N1615      C1616   1.347       .  A
O1618      C1634   1.272       .  A
O1618     Zn1624   2.010       .  S
C1619      O1635   1.274   1_455  A
O1620      C1633   1.279       .  A
O1620     Cd1627   2.112       .  S
O1621      C1639   1.274       .  A
O1622      C1636   1.271       .  A
O1623     Cd1626   2.074       .  S
Zn1624     O1635   2.036       .  S
Zn1624     O1637   1.992       .  S
Zn1624     O1629   1.939       .  S
O1625      C1636   1.273       .  A
Cd1627     O1629   2.046       .  S
O1628      C1638   1.274       .  A
Cd1630     O1632   2.048   1_545  S
O1631      C1638   1.280       .  A
C1633      O1637   1.273       .  A
C1639      O1640   1.280       .  A
O1641      C1657   1.273       .  A
O1641     Zn1647   2.034       .  S
C1642      O1658   1.271       .  A
C1642      O1655   1.271       .  A
C1642      C1678   1.461       .  S
O1643      C1656   1.281       .  A
O1643     Cd1650   2.125       .  S
O1644      C1662   1.273       .  A
O1644     Cd1653   2.037   1_556  S
O1645      C1659   1.272       .  A
O1645     Cd1649   2.077       .  S
O1646      C1657   1.270       .  A
O1646     Cd1649   2.046       .  S
Zn1647     O1658   2.007       .  S
Zn1647     O1660   1.983   1_554  S
Zn1647     O1652   1.935   1_554  S
O1648      C1659   1.271       .  A
O1648     Cd1653   2.055       .  S
Cd1649     O1651   2.043   1_554  S
Cd1649     O1652   1.987   1_554  S
Cd1650     O1654   2.130       .  S
Cd1650     O1663   2.126       .  S
Cd1650     O1652   2.050       .  S
O1651      C1661   1.274       .  A
O1652     Cd1653   1.988   1_556  S
Cd1653     O1655   2.073       .  S
O1654      C1661   1.282       .  A
C1656      O1660   1.273       .  A
C1656      C1764   1.473       .  S
C1657      C1690   1.460       .  S
C1659      C1666   1.460       .  S
C1661      C1776   1.475       .  S
C1662      O1663   1.282       .  A
C1662      C1752   1.471       .  S
C1664      C1743   1.471       .  S
C1664      N1665   1.353       .  A
C1664      N1669   1.365       .  A
N1665      C1666   1.346       .  A
C1666      N1667   1.353       .  A
N1667      C1668   1.362       .  A
C1668      C1674   1.467       .  S
C1668      N1669   1.370       .  A
C1670      N1671   1.358       .  A
C1670      N1675   1.365       .  A
N1671      C1672   1.351       .  A
C1672      C1715   1.469       .  S
C1672      N1673   1.354       .  A
N1673      C1674   1.361       .  A
C1674      N1675   1.367       .  A
C1676      C1738   1.474       .  S
C1676      N1677   1.355       .  A
C1676      N1681   1.366       .  A
C1678      N1679   1.353       .  A
N1679      C1680   1.361       .  A
C1680      C1684   1.468       .  S
C1682      N1687   1.357       .  A
C1684      N1685   1.362       .  A
N1685      C1686   1.355       .  A
C1686      C1720   1.470       .  S
C1686      N1687   1.349       .  A
C1688      C1744   1.473       .  S
C1688      N1693   1.365       .  A
N1689      C1690   1.348       .  A
C1690      N1691   1.353       .  A
N1691      C1692   1.361       .  A
C1692      C1698   1.466       .  S
C1694      N1695   1.357       .  A
N1695      C1696   1.350       .  A
C1696      C1721   1.471       .  S
C1696      N1697   1.355       .  A
N1697      C1698   1.363       .  A
O1700      C1716   1.276       .  A
O1700     Zn1706   2.051       .  S
C1701      O1717   1.273       .  A
C1701      O1714   1.275       .  A
O1702      C1715   1.274       .  A
O1702     Cd1709   2.071       .  S
O1703      C1721   1.277       .  A
O1703     Cd1712   2.082       .  S
O1704      C1718   1.275       .  A
O1704     Cd1708   2.092       .  S
O1705      C1716   1.273       .  A
O1705     Cd1708   2.049       .  S
Zn1706     O1717   2.001       .  S
Zn1706     O1719   2.030       .  S
Zn1706     O1711   1.949       .  S
O1707      C1718   1.274       .  A
O1707     Cd1712   2.056       .  S
Cd1708     O1710   2.081       .  S
Cd1708     O1711   1.999       .  S
Cd1709     O1713   2.076       .  S
Cd1709     O1722   2.076       .  S
Cd1709     O1711   2.018       .  S
O1710      C1720   1.277       .  A
O1711     Cd1712   1.999       .  S
Cd1712     O1714   2.092       .  S
O1713      C1720   1.274       .  A
C1715      O1719   1.275       .  A
C1721      O1722   1.274       .  A
O1723      C1739   1.271       .  A
O1723     Zn1729   2.008       .  S
C1724      O1740   1.274       .  A
C1724      O1737   1.270       .  A
C1724      C1780   1.461       .  S
O1725      C1738   1.281       .  A
O1725     Cd1732   2.127       .  S
O1726      C1744   1.273       .  A
O1726     Cd1735   2.039   1_554  S
O1727      C1741   1.271       .  A
O1727     Cd1731   2.052       .  S
O1728      C1739   1.271       .  A
O1728     Cd1731   2.071       .  S
Zn1729     O1740   2.038       .  S
Zn1729     O1742   1.985   1_556  S
Zn1729     O1734   1.935   1_556  S
O1730      C1741   1.272       .  A
O1730     Cd1735   2.076       .  S
Cd1731     O1733   2.035   1_556  S
Cd1731     O1734   1.987   1_556  S
Cd1732     O1736   2.127       .  S
Cd1732     O1745   2.129       .  S
Cd1732     O1734   2.051       .  S
O1733      C1743   1.273       .  A
O1734     Cd1735   1.987   1_554  S
Cd1735     O1737   2.047       .  S
O1736      C1743   1.282       .  A
C1738      O1742   1.273       .  A
C1739      C1766   1.461       .  S
C1741      C1754   1.459       .  S
C1744      O1745   1.282       .  A
C1746      C1879   1.472       .  S
C1746      N1747   1.359       .  A
C1746      N1751   1.363       .  A
N1747      C1748   1.351       .  A
C1748      C1783   1.471       .  S
C1748      N1749   1.355       .  A
N1749      C1750   1.362       .  A
C1750      C1756   1.466       .  S
C1750      N1751   1.366       .  A
C1752      N1753   1.353       .  A
C1752      N1757   1.365       .  A
N1753      C1754   1.347       .  A
C1754      N1755   1.353       .  A
N1755      C1756   1.362       .  A
C1756      N1757   1.371       .  A
C1758      C1885   1.472       .  S
C1758      N1759   1.357       .  A
N1759      C1760   1.349       .  A
C1760      C1800   1.471       .  S
C1760      N1761   1.355       .  A
N1761      C1762   1.363       .  A
C1762      C1768   1.468       .  S
C1764      N1769   1.365       .  A
N1765      C1766   1.348       .  A
C1766      N1767   1.354       .  A
N1767      C1768   1.362       .  A
C1770      C1884   1.472       .  S
C1770      N1775   1.364       .  A
N1771      C1772   1.350       .  A
C1772      C1803   1.473       .  S
C1772      N1773   1.356       .  A
C1774      N1775   1.368       .  A
C1776      N1777   1.366       .  A
C1776      N1781   1.354       .  A
C1778      N1779   1.362       .  A
N1779      C1780   1.353       .  A
O1782      C1798   1.277       .  A
O1782     Zn1788   2.057       .  S
C1783      O1799   1.276       .  A
C1783      O1796   1.274       .  A
O1784      C1797   1.275       .  A
O1784     Cd1791   2.093       .  S
O1785      C1803   1.274       .  A
O1785     Cd1794   2.076       .  S
O1786      C1800   1.278       .  A
O1786     Cd1790   2.087       .  S
O1787      C1798   1.274       .  A
O1787     Cd1790   2.053       .  S
Zn1788     O1799   2.037       .  S
Zn1788     O1801   2.003       .  S
Zn1788     O1793   1.951       .  S
O1789      C1800   1.274       .  A
O1789     Cd1794   2.074       .  S
Cd1790     O1792   2.094       .  S
Cd1790     O1793   2.002       .  S
Cd1791     O1795   2.058       .  S
Cd1791     O1804   2.087       .  S
Cd1791     O1793   2.001       .  S
O1792      C1802   1.275       .  A
O1793     Cd1794   2.018       .  S
Cd1794     O1796   2.072       .  S
O1795      C1802   1.274       .  A
C1797      O1801   1.274       .  A
C1797      C1811   1.464       .  S
C1798      C1840   1.465       .  S
C1802      C1852   1.464       .  S
C1803      O1804   1.277       .  A
C1805      C1967   1.465       .  S
C1805      N1806   1.357       .  A
C1805      N1810   1.362       .  A
N1806      C1807   1.349       .  A
C1807      C1838   1.470       .  S
N1808      C1809   1.363       .  A
C1809      C1815   1.463       .  S
C1811      N1812   1.351       .  A
C1811      N1816   1.365       .  A
N1812      C1813   1.347       .  A
C1813      C1865   1.452       .  S
C1815      N1816   1.369       .  A
O1817      C1833   1.276       .  A
C1818      O1834   1.273       .  A
C1818      O1831   1.274       .  A
C1818      C1918   1.463       .  S
O1819      C1832   1.275       .  A
O1819     Cd1826   2.081       .  S
O1820      C1838   1.276       .  A
O1820     Cd1829   2.077   1_655  S
O1821      C1835   1.275   1_565  A
O1821     Cd1825   2.093       .  S
O1822     Cd1825   2.046       .  S
Zn1823     O1834   1.999       .  S
Zn1823     O1836   2.026       .  S
Zn1823     O1828   1.946       .  S
O1824     Cd1829   2.056   1_655  S
Cd1825     O1827   2.075       .  S
Cd1826     O1828   2.022       .  S
O1827      C1837   1.276       .  A
O1830      C1837   1.276       .  A
C1832      O1836   1.275       .  A
C1835      C1940   1.465       .  S
C1837      C1848   1.471       .  S
C1838      O1839   1.275       .  A
C1840      N1841   1.350       .  A
C1840      N1845   1.366       .  A
N1841      C1842   1.346       .  A
C1842      C1882   1.451       .  S
C1842      N1843   1.350       .  A
N1843      C1844   1.359       .  A
C1844      C1850   1.465       .  S
C1844      N1845   1.370       .  A
C1846      C1966   1.465       .  S
C1846      N1847   1.356       .  A
C1846      N1851   1.362       .  A
N1847      C1848   1.349       .  A
C1848      N1849   1.355       .  A
N1849      C1850   1.364       .  A
C1850      N1851   1.365       .  A
C1852      N1853   1.350       .  A
C1852      N1857   1.365       .  A
C1854      C1880   1.453       .  S
C1854      N1855   1.352       .  A
N1855      C1856   1.360       .  A
C1858      N1863   1.354       .  A
N1859      C1860   1.358       .  A
C1860      C1961   1.469       .  S
C1860      N1861   1.363       .  A
C1862      N1863   1.362       .  A
O1864      C1880   1.271       .  A
O1864     Zn1870   2.019       .  S
C1865      O1881   1.269       .  A
O1866      C1879   1.283       .  A
O1866     Cd1873   2.130       .  S
O1867      C1885   1.270   1_545  A
O1868      C1882   1.269       .  A
O1869     Cd1872   2.035       .  S
Zn1870     O1881   1.988       .  S
Zn1870     O1883   1.971       .  S
Zn1870     O1875   1.931       .  S
O1871      C1882   1.269       .  A
Cd1873     O1875   2.039       .  S
O1874      C1884   1.270   1_655  A
Cd1876     O1878   2.059       .  S
O1877      C1884   1.283       .  A
C1879      O1883   1.270       .  A
C1885      O1886   1.283       .  A
O1887      C1903   1.273       .  A
O1887     Zn1893   2.013       .  S
C1888      O1904   1.274       .  A
C1888      O1901   1.271       .  A
C1888      C1912   1.462       .  S
O1889      C1902   1.278       .  A
O1889     Cd1896   2.111       .  S
O1890      C1908   1.274       .  A
O1890     Cd1899   2.046       .  S
O1891      C1905   1.272       .  A
O1891     Cd1895   2.060       .  S
O1892      C1903   1.272       .  A
O1892     Cd1895   2.077       .  S
Zn1893     O1904   2.041       .  S
Zn1893     O1906   1.997       .  S
Zn1893     O1898   1.939       .  S
O1894      C1905   1.272       .  A
O1894     Cd1899   2.078       .  S
Cd1895     O1897   2.044       .  S
Cd1895     O1898   1.991       .  S
Cd1896     O1900   2.111       .  S
Cd1896     O1909   2.118       .  S
Cd1896     O1898   2.047       .  S
O1897      C1907   1.274       .  A
O1898     Cd1899   1.990       .  S
Cd1899     O1901   2.050       .  S
O1900      C1907   1.279       .  A
C1902      O1906   1.274       .  A
C1903      C1934   1.463       .  S
C1905      C1924   1.461       .  S
C1908      O1909   1.280       .  A
C1910      N1911   1.355       .  A
C1910      N1915   1.364       .  A
N1911      C1912   1.347       .  A
C1912      N1913   1.352       .  A
N1913      C1914   1.363       .  A
C1914      C1920   1.464       .  S
C1914      N1915   1.367       .  A
C1916      C1962   1.454       .  S
C1916      N1917   1.347       .  A
C1916      N1921   1.350       .  A
N1917      C1918   1.352       .  A
C1918      N1919   1.365       .  A
N1919      C1920   1.368       .  A
C1920      N1921   1.360       .  A
C1922      N1923   1.353       .  A
C1922      N1927   1.363       .  A
C1924      N1925   1.353       .  A
N1925      C1926   1.363       .  A
C1926      C1930   1.463       .  S
C1928      N1933   1.351       .  A
C1930      N1931   1.359       .  A
N1931      C1932   1.349       .  A
C1932      C1964   1.452       .  S
C1932      N1933   1.347       .  A
C1934      N1935   1.348       .  A
C1934      N1939   1.353       .  A
C1936      N1937   1.364       .  A
C1938      N1939   1.363       .  A
C1940      N1945   1.366   1_545  A
N1941      C1942   1.347       .  A
C1942      C1947   1.452       .  S
C1942      N1943   1.350       .  A
C1944      N1945   1.370   1_545  A
O1946      C1962   1.270       .  A
O1946     Zn1952   1.993       .  S
C1947      O1963   1.272       .  A
C1947      O1960   1.269       .  A
O1948      C1961   1.279       .  A
O1948     Cd1955   2.110       .  S
O1949      C1967   1.270       .  A
O1949     Cd1958   2.023       .  S
O1950      C1964   1.270       .  A
O1950     Cd1954   2.044       .  S
O1951      C1962   1.270       .  A
O1951     Cd1954   2.062       .  S
Zn1952     O1963   2.023       .  S
Zn1952     O1965   1.981       .  S
Zn1952     O1957   1.930       .  S
O1953      C1964   1.270       .  A
O1953     Cd1958   2.063       .  S
Cd1954     O1956   2.028       .  S
Cd1954     O1957   1.982       .  S
Cd1955     O1959   2.111       .  S
Cd1955     O1968   2.113       .  S
Cd1955     O1957   2.032       .  S
O1956      C1966   1.271       .  A
O1957     Cd1958   1.980       .  S
Cd1958     O1960   2.035       .  S
O1959      C1966   1.280       .  A
C1961      O1965   1.271       .  A
C1967      O1968   1.280       .  A
