geometry optimzed in LAMMPS
_audit_creation_date              2020-12-01 
_audit_creation_method            'lammps2cif' 
_symmetry_space_group_name_H-M    'P1' 
_symmetry_Int_Tables_number       1 
_symmetry_cell_setting            triclinic 
loop_ 
_symmetry_equiv_pos_as_xyz 
  x,y,z 
_cell_length_a                    48.09531986 
_cell_length_b                    48.10565230004542 
_cell_length_c                    35.69184480704244 
_cell_angle_alpha                 90.02860653329397 
_cell_angle_beta                  89.9958993496175 
_cell_angle_gamma                 120.0496915715345 
loop_ 
_atom_site_label 
_atom_site_type_symbol 
_atom_site_fract_x 
_atom_site_fract_y 
_atom_site_fract_z 
_atom_site_charge 
O1          O  0.23591952  0.11817091  0.08169501    -0.77600
C2          C  0.28332877  0.09188709  0.99434106     0.83400
O3          O  0.26319713  0.18478099  0.46796390    -0.78700
O4          O  0.21149159  0.08271214  0.40623593    -0.80200
O5          O  0.14724437  0.03693882  0.01136432    -0.80000
O6          O  0.18235761  0.09140700  0.08058141    -0.78600
Zn7        Zn  0.25018856  0.12533448  0.02877936     1.55700
O8          O  0.18374384  0.03118039  0.47841320    -0.80000
Cd9        Cd  0.17275009  0.08657056  0.02268908     1.59700
Cd10       Cd  0.21858731  0.14296199  0.46208191     1.59600
O11         O  0.14715765  0.11055613  0.01121995    -0.80000
O12         O  0.21479398  0.10762303  0.99444497    -1.90500
Cd13       Cd  0.21852045  0.07603243  0.46204449     1.59900
O14         O  0.18364312  0.15282772  0.47826185    -0.80000
O15         O  0.26315457  0.07895993  0.46775809    -0.78600
C16         C  0.28338135  0.19202028  0.99453465     0.83900
C17         C  0.20900237  0.10471470  0.09834155     0.83600
O18         O  0.27909284  0.10740220  0.02041855    -0.77600
C19         C  0.15721289  0.01947253  0.49602816     0.84400
O20         O  0.27914123  0.17222316  0.02053333    -0.77700
C21         C  0.15707459  0.13793937  0.49580229     0.84500
C22         C  0.20973905  0.10507123  0.38922294     0.84800
O23         O  0.21171128  0.12928724  0.40625170    -0.80100
O24         O  0.23592133  0.11815634  0.33170222    -0.77600
C25         C  0.28335025  0.09188656  0.24435432     0.83400
O26         O  0.26321938  0.18477281  0.21798622    -0.78700
O27         O  0.21150508  0.08271979  0.15623327    -0.80200
O28         O  0.14726874  0.03693138  0.26135175    -0.80000
O29         O  0.18235940  0.09139680  0.33057085    -0.78600
Zn30       Zn  0.25020470  0.12532220  0.27879378     1.55700
O31         O  0.18376651  0.03117928  0.22841351    -0.80000
Cd32       Cd  0.17276639  0.08656165  0.27267773     1.59700
Cd33       Cd  0.21860786  0.14296291  0.21209629     1.59600
O34         O  0.14717193  0.11054345  0.26120340    -0.80000
O35         O  0.21481700  0.10761946  0.24445015    -1.90500
Cd36       Cd  0.21853845  0.07603411  0.21204145     1.59900
O37         O  0.18367135  0.15283682  0.22828613    -0.80000
O38         O  0.26317470  0.07896723  0.21775726    -0.78600
C39         C  0.28340956  0.19201081  0.24455967     0.83900
C40         C  0.20899985  0.10470269  0.34833910     0.83600
O41         O  0.27910477  0.10738406  0.27044111    -0.77600
C42         C  0.15723324  0.01946949  0.24602449     0.84400
O43         O  0.27916678  0.17221131  0.27055714    -0.77700
C44         C  0.15709503  0.13794190  0.24580968     0.84500
C45         C  0.20975127  0.10508118  0.13922658     0.84800
O46         O  0.21172741  0.12929626  0.15626227    -0.80100
O47         O  0.12018085  0.38606889  0.41515519    -0.77600
C48         C  0.19387829  0.41245242  0.50256227     0.83400
O49         O  0.08074764  0.31944728  0.02884750    -0.78700
O50         O  0.13113325  0.42146856  0.09061679    -0.80200
O51         O  0.11246436  0.46708590  0.48551058    -0.80000
O52         O  0.09326169  0.41266464  0.41626984    -0.78600
Zn53       Zn  0.12726662  0.37892539  0.46807993     1.55700
O54         O  0.15476554  0.47305755  0.01850974    -0.80000
Cd55       Cd  0.08848599  0.41749567  0.47415201     1.59700
Cd56       Cd  0.07791436  0.36119010  0.03476530     1.59600
O57         O  0.03890717  0.39350157  0.48562282    -0.80000
O58         O  0.10952523  0.39655429  0.50241871    -1.90500
Cd59       Cd  0.14484061  0.42823366  0.03480834     1.59900
O60         O  0.03303644  0.35125151  0.01861779    -0.80000
O61         O  0.18661918  0.42542330  0.02909881    -0.78600
C62         C  0.09374377  0.31224800  0.50228607     0.83900
C63         C  0.10665578  0.39943649  0.39850970     0.83600
O64         O  0.17412430  0.39690099  0.47648964    -0.77600
C65         C  0.13986101  0.48465096  0.50090386     0.84400
O66         O  0.10932747  0.33205809  0.47629720    -0.77700
C67         C  0.02137980  0.36613529  0.00106834     0.84500
C68         C  0.10701306  0.39907457  0.10763280     0.84800
O69         O  0.08474436  0.37484534  0.09060497    -0.80100
O70         O  0.12018358  0.38607710  0.16514985    -0.77600
C71         C  0.19389132  0.41244832  0.25254775     0.83400
O72         O  0.08078349  0.31944557  0.27883438    -0.78700
O73         O  0.13114908  0.42145963  0.34061301    -0.80200
O74         O  0.11247760  0.46708415  0.23552702    -0.80000
O75         O  0.09325937  0.41266774  0.16628499    -0.78600
Zn76       Zn  0.12728136  0.37892971  0.21806768     1.55700
O77         O  0.15480192  0.47305059  0.26849690    -0.80000
Cd78       Cd  0.08849632  0.41749534  0.22416815     1.59700
Cd79       Cd  0.07793872  0.36117974  0.28475536     1.59600
O80         O  0.03891961  0.39350048  0.23564465    -0.80000
O81         O  0.10954117  0.39655217  0.25241677    -1.90500
Cd82       Cd  0.14486333  0.42822287  0.28480437     1.59900
O83         O  0.03305905  0.35123142  0.26859754    -0.80000
O84         O  0.18663331  0.42539970  0.27909155    -0.78600
C85         C  0.09377104  0.31225271  0.25226995     0.83900
C86         C  0.10665182  0.39944296  0.14851527     0.83600
O87         O  0.17414109  0.39690774  0.22646714    -0.77600
C88         C  0.13988216  0.48464821  0.25090331     0.84400
O89         O  0.10934788  0.33206182  0.22627754    -0.77700
C90         C  0.02140162  0.36612355  0.25106706     0.84500
C91         C  0.10702622  0.39906566  0.35762636     0.84800
O92         O  0.08476113  0.37483498  0.34059605    -0.80100
O93         O  0.39854435  0.22688708  0.02076342    -0.77600
C94         C  0.40124062  0.29700304  0.09869286     0.83400
O95         O  0.32123433  0.24286729  0.46812094    -0.78700
O96         O  0.39548246  0.35886192  0.01166507    -0.80200
O97         O  0.47480007  0.32223096  0.47869051    -0.80000
O98         O  0.42696792  0.24283171  0.46809664    -0.78600
Zn99       Zn  0.38060087  0.25580373  0.02909103     1.55700
O100        O  0.46909633  0.35872852  0.01170302    -0.80000
Cd101      Cd  0.42991458  0.28745297  0.46239451     1.59700
Cd102      Cd  0.36304039  0.28749328  0.46241868     1.59600
O103        O  0.42320042  0.29442717  0.40659011    -0.80000
O104        O  0.39835129  0.29121074  0.99480344    -1.90500
Cd105      Cd  0.41945928  0.33325055  0.02307449     1.59900
O106        O  0.37672678  0.29442592  0.40659970    -0.80000
O107        O  0.41463249  0.32364037  0.08095235    -0.78600
C108        C  0.31395849  0.22262342  0.99461698     0.83900
C109        C  0.41403542  0.22264620  0.99466468     0.83600
O110        O  0.38771759  0.27008594  0.08202879    -0.77600
C111        C  0.48654437  0.34877018  0.49630009     0.84400
O112        O  0.33371333  0.22683929  0.02068315    -0.77700
C113        C  0.40089215  0.29628188  0.38957419     0.84500
C114        C  0.36808180  0.34896530  0.49627620     0.84800
O115        O  0.35316357  0.32240425  0.47871125    -0.80100
O116        O  0.38774875  0.27009432  0.33203101    -0.77600
C117        C  0.31398680  0.22261249  0.24464188     0.83400
O118        O  0.42697439  0.24282356  0.21808918    -0.78700
O119        O  0.37671750  0.29440721  0.15661221    -0.80200
O120        O  0.39551255  0.35886726  0.26164959    -0.80000
O121        O  0.41464780  0.32364870  0.33094648    -0.78600
Zn122      Zn  0.38063582  0.25580398  0.27909857     1.55700
O123        O  0.35316701  0.32238879  0.22873226    -0.80000
Cd124      Cd  0.41948337  0.33325129  0.27306765     1.59700
Cd125      Cd  0.42992344  0.28744606  0.21238757     1.59600
O126        O  0.46912054  0.35872076  0.26170147    -0.80000
O127        O  0.39837407  0.29120716  0.24480566    -1.90500
Cd128      Cd  0.36304639  0.28748037  0.21243556     1.59900
O129        O  0.47481231  0.32222153  0.22868429    -0.80000
O130        O  0.32124720  0.24285506  0.21814798    -0.78600
C131        C  0.41406797  0.22264995  0.24466516     0.83900
C132        C  0.40126040  0.29701326  0.34869061     0.83600
O133        O  0.33374824  0.22682685  0.27069859    -0.77600
C134        C  0.36809259  0.34895744  0.24628077     0.84400
O135        O  0.39859135  0.22689774  0.27077666    -0.77700
C136        C  0.48655821  0.34875955  0.24629723     0.84500
C137        C  0.40088127  0.29626848  0.13957714     0.84800
O138        O  0.42319725  0.29442041  0.15658428    -0.80100
O139        O  0.22869134  0.39697152  0.47649587    -0.77600
C140        C  0.29877499  0.39961384  0.39858430     0.83400
O141        O  0.24455498  0.31955303  0.02891805    -0.78700
O142        O  0.36060896  0.39378733  0.48570259    -0.80200
O143        O  0.32402308  0.47315466  0.01852747    -0.80000
O144        O  0.24461095  0.42537465  0.02919498    -0.78600
Zn145      Zn  0.25757968  0.37902049  0.46813760     1.55700
O146        O  0.36051284  0.46739975  0.48556727    -0.80000
Cd147      Cd  0.28924803  0.42830108  0.03489561     1.59700
Cd148      Cd  0.28916915  0.36136259  0.03482243     1.59600
O149        O  0.29629173  0.42161336  0.09069447    -0.80000
O150        O  0.29296776  0.39671107  0.50247941    -1.90500
Cd151      Cd  0.33501399  0.41776867  0.47424264     1.59900
O152        O  0.29605466  0.37502894  0.09066184    -0.80000
O153        O  0.32541650  0.41292351  0.41635026    -0.78600
C154        C  0.22437121  0.31232145  0.50234983     0.83900
C155        C  0.22444334  0.41246066  0.50259112     0.83600
O156        O  0.27185521  0.38616959  0.41522485    -0.77600
C157        C  0.35055422  0.48486194  0.50090671     0.84400
O158        O  0.22861135  0.33213450  0.47637045    -0.77700
C159        C  0.29804074  0.39924882  0.10769857     0.84500
C160        C  0.35068556  0.36638449  0.50108390     0.84800
O161        O  0.32410108  0.35148427  0.01861100    -0.80100
O162        O  0.22869942  0.39695729  0.22648883    -0.77600
C163        C  0.29878826  0.39961793  0.14858307     0.83400
O164        O  0.24457788  0.31954414  0.27891567    -0.78700
O165        O  0.36062012  0.39377884  0.23569845    -0.80200
O166        O  0.32404098  0.47314932  0.26852283    -0.80000
O167        O  0.24462956  0.42536951  0.27917530    -0.78600
Zn168      Zn  0.25759375  0.37901297  0.21813387     1.55700
O169        O  0.36053185  0.46739605  0.23557110    -0.80000
Cd170      Cd  0.28926298  0.42829487  0.28488547     1.59700
Cd171      Cd  0.28918806  0.36135805  0.28482618     1.59600
O172        O  0.29628942  0.42160578  0.34068872    -0.80000
O173        O  0.29298161  0.39670720  0.25247659    -1.90500
Cd174      Cd  0.33502918  0.41776514  0.22424079     1.59900
O175        O  0.29605605  0.37502318  0.34066731    -0.80000
O176        O  0.32543113  0.41292715  0.16634681    -0.78600
C177        C  0.22439010  0.31231479  0.25234099     0.83900
C178        C  0.22445479  0.41245421  0.25257671     0.83600
O179        O  0.27186992  0.38616954  0.16522556    -0.77600
C180        C  0.35057227  0.48485865  0.25090787     0.84400
O181        O  0.22863185  0.33212566  0.22635844    -0.77700
C182        C  0.29803380  0.39924148  0.35769939     0.84500
C183        C  0.35069846  0.36637930  0.25108779     0.84800
O184        O  0.32412743  0.35148673  0.26862391    -0.80100
O185        O  0.33365153  0.10745067  0.02043916    -0.77600
C186        C  0.40111344  0.10488577  0.09840859     0.83400
O187        O  0.42700740  0.18488048  0.46804799    -0.78700
O188        O  0.46886232  0.11083226  0.01127274    -0.80200
O189        O  0.35298469  0.03127926  0.47843093    -0.80000
O190        O  0.32114996  0.07892849  0.46784121    -0.78600
Zn191      Zn  0.38050869  0.12541620  0.02884651     1.55700
O192        O  0.39530484  0.03724945  0.01140755    -0.80000
Cd193      Cd  0.36291991  0.07610523  0.46212135     1.59700
Cd194      Cd  0.42984527  0.14314081  0.46215292     1.59600
O195        O  0.37662815  0.08286364  0.40630731    -0.80000
O196        O  0.39823887  0.10777764  0.99450467    -1.90500
Cd197      Cd  0.41928501  0.08683909  0.02276077     1.59900
O198        O  0.42302397  0.12947910  0.40632149    -0.80000
O199        O  0.41451159  0.09166488  0.08064230    -0.78600
C200        C  0.41401938  0.19208306  0.99461210     0.83900
C201        C  0.31389414  0.09189596  0.99437479     0.83600
O202        O  0.38758940  0.11825819  0.08177032    -0.77600
C203        C  0.36790418  0.01968314  0.49602828     0.84400
O204        O  0.39845353  0.17228638  0.02062093    -0.77700
C205        C  0.40075516  0.10525219  0.38929284     0.84500
C206        C  0.48638163  0.13819438  0.49582517     0.84800
O207        O  0.47472274  0.15308213  0.47829003    -0.80100
O208        O  0.33367730  0.10745883  0.27044288    -0.77600
C209        C  0.40112859  0.10488588  0.34841023     0.83400
O210        O  0.42702422  0.18487798  0.21804840    -0.78700
O211        O  0.46888265  0.11083040  0.26127784    -0.80200
O212        O  0.35300245  0.03127579  0.22843356    -0.80000
O213        O  0.32115956  0.07891815  0.21785487    -0.78600
Zn214      Zn  0.38053383  0.12542031  0.27884595     1.55700
O215        O  0.39532460  0.03724607  0.26141160    -0.80000
Cd216      Cd  0.36293102  0.07610050  0.21212827     1.59700
Cd217      Cd  0.42985749  0.14313645  0.21214950     1.59600
O218        O  0.37662574  0.08286238  0.15631050    -0.80000
O219        O  0.39826021  0.10777631  0.24450602    -1.90500
Cd220      Cd  0.41930474  0.08683673  0.27276555     1.59900
O221        O  0.42302263  0.12947678  0.15631711    -0.80000
O222        O  0.41452630  0.09166209  0.33064827    -0.78600
C223        C  0.41405008  0.19208598  0.24461319     0.83900
C224        C  0.31391489  0.09189509  0.24438214     0.83600
O225        O  0.38761024  0.11826149  0.33176752    -0.77600
C226        C  0.36792255  0.01968019  0.24603052     0.85600
O227        O  0.39848468  0.17229069  0.27062239    -0.77700
C228        C  0.40074830  0.10525201  0.13929139     0.84500
C229        C  0.48639761  0.13819234  0.24581966     0.84800
O230        O  0.47473718  0.15307570  0.22827774    -0.80100
O231        O  0.17404157  0.27750888  0.47618356    -0.77600
C232        C  0.10653006  0.20732980  0.39815857     0.83400
O233        O  0.08080243  0.26150304  0.02878065    -0.78700
O234        O  0.03866183  0.14560390  0.48515207    -0.80200
O235        O  0.15459989  0.18193469  0.01813756    -0.80000
O236        O  0.18652460  0.26147065  0.02872638    -0.78600
Zn237      Zn  0.12715421  0.24853154  0.46776260     1.55700
O238        O  0.11226997  0.14546025  0.48519794    -0.80000
Cd239      Cd  0.14472474  0.21684548  0.03441959     1.59700
Cd240      Cd  0.07785597  0.21688216  0.03446728     1.59600
O241        O  0.13105354  0.20991286  0.09023972    -0.80000
O242        O  0.10940824  0.21311888  0.50204421    -1.90500
Cd243      Cd  0.08829927  0.17107779  0.47377507     1.59900
O244        O  0.08457848  0.20990633  0.09026798    -0.80000
O245        O  0.09313741  0.18069206  0.41589862    -0.78600
C246        C  0.09372121  0.28168134  0.50221495     0.83900
C247        C  0.19379596  0.28171679  0.50224672     0.83600
O248        O  0.12004552  0.23424776  0.41482226    -0.77600
C249        C  0.13968002  0.15536174  0.50059044     0.84400
O250        O  0.10920192  0.27744132  0.47610126    -0.77700
C251        C  0.10689157  0.20805412  0.10727476     0.84500
C252        C  0.02122599  0.15555884  0.50057546     0.84800
O253        O  0.03296905  0.18210250  0.01818845    -0.80100
O254        O  0.17406613  0.27749735  0.22616621    -0.77600
C255        C  0.10653311  0.20732117  0.14815808     0.83400
O256        O  0.08082588  0.26150029  0.27875761    -0.78700
O257        O  0.03867892  0.14559870  0.23515919    -0.80200
O258        O  0.15461711  0.18192744  0.26815528    -0.80000
O259        O  0.18654407  0.26146464  0.27873032    -0.78600
Zn260      Zn  0.12717682  0.24852879  0.21775504     1.55700
O261        O  0.11229074  0.14546161  0.23520118    -0.80000
Cd262      Cd  0.14474236  0.21684141  0.28442874     1.59700
Cd263      Cd  0.07787566  0.21688048  0.28445212     1.59600
O264        O  0.13106392  0.20991935  0.34024851    -0.80000
O265        O  0.10942646  0.21311878  0.25204063    -1.90500
Cd266      Cd  0.08831608  0.17107474  0.22377773     1.59900
O267        O  0.08458791  0.20991097  0.34025748    -0.80000
O268        O  0.09314405  0.18068413  0.16589976    -0.78600
C269        C  0.09374970  0.28168734  0.25219879     0.83900
C270        C  0.19381550  0.28171011  0.25223743     0.83600
O271        O  0.12005465  0.23423983  0.16481948    -0.77600
C272        C  0.13969888  0.15536293  0.25059818     0.84400
O273        O  0.10923577  0.27744864  0.22609071    -0.77700
C274        C  0.10689884  0.20806255  0.35727456     0.84500
C275        C  0.02124244  0.15555906  0.25056913     0.84800
O276        O  0.03298977  0.18210251  0.26816917    -0.80100
O277        O  0.23592532  0.11817371  0.58169573    -0.77600
C278        C  0.28333824  0.09189315  0.49434426     0.83400
O279        O  0.26318964  0.18477788  0.96796111    -0.78700
O280        O  0.21148574  0.08270987  0.90623422    -0.80200
O281        O  0.14725427  0.03693637  0.51136380    -0.80000
O282        O  0.18236324  0.09140598  0.58057980    -0.78600
Zn283      Zn  0.25019618  0.12533709  0.52878099     1.55700
O284        O  0.18373172  0.03118018  0.97841194    -0.80000
Cd285      Cd  0.17275715  0.08656848  0.52268789     1.59700
Cd286      Cd  0.21857969  0.14295986  0.96207862     1.59600
O287        O  0.14716220  0.11055101  0.51121787    -0.80000
O288        O  0.21480201  0.10762442  0.49444621    -1.90500
Cd289      Cd  0.21851183  0.07603008  0.96204369     1.59900
O290        O  0.18363675  0.15282845  0.97825678    -0.80000
O291        O  0.26314479  0.07895361  0.96775892    -0.78600
C292        C  0.28338921  0.19202339  0.49453605     0.83900
C293        C  0.20900745  0.10471578  0.59834085     0.83600
O294        O  0.27910047  0.10740460  0.52042075    -0.77600
C295        C  0.15720111  0.01947395  0.99602748     0.84400
O296        O  0.27914948  0.17222580  0.52053505    -0.77700
C297        C  0.15706971  0.13794310  0.99580046     0.84500
C298        C  0.20973413  0.10506901  0.88922013     0.84800
O299        O  0.21170551  0.12928491  0.90624824    -0.80100
O300        O  0.23591904  0.11815542  0.83170064    -0.77600
C301        C  0.28335021  0.09188562  0.74435346     0.83400
O302        O  0.26321918  0.18477278  0.71798483    -0.78700
O303        O  0.21150803  0.08272044  0.65623225    -0.80200
O304        O  0.14726734  0.03692998  0.76134508    -0.80000
O305        O  0.18235703  0.09139351  0.83056641    -0.78600
Zn306      Zn  0.25020419  0.12532121  0.77879233     1.55700
O307        O  0.18376652  0.03117824  0.72840958    -0.80000
Cd308      Cd  0.17276536  0.08655993  0.77267324     1.59700
Cd309      Cd  0.21860788  0.14296277  0.71209494     1.59600
O310        O  0.14717140  0.11054256  0.76120080    -0.80000
O311        O  0.21481717  0.10761888  0.74444789    -1.90500
Cd312      Cd  0.21853917  0.07603351  0.71203980     1.59900
O313        O  0.18367127  0.15283683  0.72828532    -0.80000
O314        O  0.26317499  0.07896640  0.71775591    -0.78600
C315        C  0.28340970  0.19201047  0.74455782     0.83900
C316        C  0.20899683  0.10470049  0.84833609     0.83600
O317        O  0.27910417  0.10738253  0.77044031    -0.77600
C318        C  0.15723230  0.01946824  0.74601865     0.84400
O319        O  0.27916705  0.17221063  0.77055487    -0.77700
C320        C  0.15709492  0.13794169  0.74580884     0.84500
C321        C  0.20975466  0.10508197  0.63922551     0.84800
O322        O  0.21172923  0.12929647  0.65626095    -0.80100
O323        O  0.12017762  0.38607401  0.91515621    -0.77600
C324        C  0.19387306  0.41245788  0.00255860     0.83400
O325        O  0.08075296  0.31944209  0.52884582    -0.78700
O326        O  0.13113726  0.42146397  0.59061431    -0.80200
O327        O  0.11245375  0.46708724  0.98550858    -0.80000
O328        O  0.09325480  0.41266600  0.91626737    -0.78600
Zn329      Zn  0.12726170  0.37893111  0.96808180     1.55700
O330        O  0.15477710  0.47305451  0.51850773    -0.80000
Cd331      Cd  0.08847737  0.41749718  0.97415005     1.59700
Cd332      Cd  0.07791998  0.36118511  0.53476238     1.59600
O333        O  0.03889817  0.39350079  0.98562016    -0.80000
O334        O  0.10951858  0.39655885  0.00242002    -1.90500
Cd335      Cd  0.14484718  0.42822854  0.53480689     1.59900
O336        O  0.03304300  0.35124799  0.51861322    -0.80000
O337        O  0.18662327  0.42541392  0.52909776    -0.78600
C338        C  0.09373774  0.31225323  0.00228852     0.83900
C339        C  0.10665154  0.39943963  0.89850874     0.83600
O340        O  0.17412008  0.39690756  0.97649302    -0.77600
C341        C  0.13984935  0.48465288  0.00090421     0.84400
O342        O  0.10932230  0.33206403  0.97629896    -0.77700
C343        C  0.02138770  0.36613459  0.50106723     0.84500
C344        C  0.10701600  0.39907071  0.60762962     0.84800
O345        O  0.08474803  0.37484107  0.59060162    -0.80100
O346        O  0.12018532  0.38607548  0.66514827    -0.77600
C347        C  0.19389046  0.41244773  0.75254637     0.83400
O348        O  0.08078371  0.31944608  0.77883318    -0.78700
O349        O  0.13114655  0.42146115  0.84061151    -0.80200
O350        O  0.11247751  0.46708301  0.73551950    -0.80000
O351        O  0.09325893  0.41266391  0.66627983    -0.78600
Zn352      Zn  0.12728127  0.37892908  0.71806642     1.55700
O353        O  0.15480033  0.47304962  0.76849294    -0.80000
Cd354      Cd  0.08849577  0.41749373  0.72416271     1.59700
Cd355      Cd  0.07793835  0.36118010  0.78475390     1.59600
O356        O  0.03891929  0.39349949  0.73564048    -0.80000
O357        O  0.10954038  0.39655170  0.75241438    -1.90500
Cd358      Cd  0.14486187  0.42822257  0.78480251     1.59900
O359        O  0.03305907  0.35123169  0.76859592    -0.80000
O360        O  0.18663223  0.42539942  0.77909034    -0.78600
C361        C  0.09377066  0.31225278  0.75226869     0.83900
C362        C  0.10665305  0.39943989  0.64851191     0.83600
O363        O  0.17414051  0.39690693  0.72646635    -0.77600
C364        C  0.13988124  0.48464708  0.75089730     0.84400
O365        O  0.10934762  0.33206170  0.72627604    -0.77700
C366        C  0.02140151  0.36612319  0.75106484     0.84500
C367        C  0.10702324  0.39906766  0.85762500     0.84800
O368        O  0.08475891  0.37483638  0.84059465    -0.80100
O369        O  0.39855647  0.22689192  0.52076270    -0.77600
C370        C  0.40124574  0.29700538  0.59869283     0.83400
O371        O  0.32122744  0.24286319  0.96811819    -0.78700
O372        O  0.39549327  0.35886701  0.51166378    -0.80200
O373        O  0.47479278  0.32222812  0.97869517    -0.80000
O374        O  0.42695953  0.24282874  0.96810006    -0.78600
Zn375      Zn  0.38061085  0.25580685  0.52909002     1.55700
O376        O  0.46910542  0.35872958  0.51170495    -0.80000
Cd377      Cd  0.42990751  0.28745016  0.96239775     1.59700
Cd378      Cd  0.36303276  0.28748993  0.96241760     1.59600
O379        O  0.42319592  0.29442543  0.90659289    -0.80000
O380        O  0.39835980  0.29121414  0.49480271    -1.90500
Cd381      Cd  0.41946806  0.33325384  0.52307474     1.59900
O382        O  0.37672179  0.29442315  0.90659929    -0.80000
O383        O  0.41463768  0.32364303  0.58095284    -0.78600
C384        C  0.31396708  0.22262617  0.49461884     0.83900
C385        C  0.41404643  0.22265037  0.49466202     0.83600
O386        O  0.38772524  0.27008860  0.58202809    -0.77600
C387        C  0.48653626  0.34876878  0.99630154     0.84400
O388        O  0.33372350  0.22684105  0.52068161    -0.77700
C389        C  0.40088821  0.29627996  0.88957538     0.84500
C390        C  0.36807148  0.34896071  0.99627637     0.84800
O391        O  0.35315402  0.32240026  0.97870994    -0.80100
O392        O  0.38774560  0.27009328  0.83203162    -0.77600
C393        C  0.31398695  0.22261232  0.74464024     0.83400
O394        O  0.42697375  0.24282303  0.71809061    -0.78700
O395        O  0.37672044  0.29440970  0.65661133    -0.80200
O396        O  0.39551255  0.35886644  0.76165303    -0.80000
O397        O  0.41464838  0.32364767  0.83094818    -0.78600
Zn398      Zn  0.38063515  0.25580374  0.77909890     1.55700
O399        O  0.35316779  0.32238954  0.72873322    -0.80000
Cd400      Cd  0.41948382  0.33325077  0.77306927     1.59700
Cd401      Cd  0.42992320  0.28744542  0.71238885     1.59600
O402        O  0.46912068  0.35872061  0.76170122    -0.80000
O403        O  0.39837409  0.29120717  0.74480640    -1.90500
Cd404      Cd  0.36304722  0.28748120  0.71243495     1.59900
O405        O  0.47481194  0.32222081  0.72868456    -0.80000
O406        O  0.32124757  0.24285529  0.71814662    -0.78600
C407        C  0.41406758  0.22264974  0.74466661     0.83900
C408        C  0.40125836  0.29701195  0.84869180     0.83600
O409        O  0.33374814  0.22682646  0.77069713    -0.77600
C410        C  0.36809301  0.34895741  0.74628343     0.84400
O411        O  0.39859110  0.22689776  0.77077832    -0.77700
C412        C  0.48655806  0.34875936  0.74629662     0.84500
C413        C  0.40088431  0.29626998  0.63957728     0.84800
O414        O  0.42319871  0.29442011  0.65658558    -0.80100
O415        O  0.22868805  0.39698029  0.97649505    -0.77600
C416        C  0.29877183  0.39961688  0.89858490     0.83400
O417        O  0.24456299  0.31954749  0.52891956    -0.78700
O418        O  0.36060175  0.39378508  0.98570477    -0.80200
O419        O  0.32402526  0.47315248  0.51852684    -0.80000
O420        O  0.24461515  0.42536836  0.52919414    -0.78600
Zn421      Zn  0.25757473  0.37902766  0.96813697     1.55700
O422        O  0.36050990  0.46739989  0.98556844    -0.80000
Cd423      Cd  0.28925237  0.42829747  0.53489482     1.59700
Cd424      Cd  0.28917615  0.36136024  0.53482382     1.59600
O425        O  0.29629513  0.42161060  0.59069418    -0.80000
O426        O  0.29296247  0.39671447  0.00247935    -1.90500
Cd427      Cd  0.33500919  0.41776888  0.97424406     1.59900
O428        O  0.29605924  0.37502677  0.59066341    -0.80000
O429        O  0.32541290  0.41292316  0.91635167    -0.78600
C430        C  0.22436332  0.31232847  0.00234710     0.83900
C431        C  0.22444129  0.41247176  0.00259688     0.83600
O432        O  0.27185159  0.38617657  0.91522452    -0.77600
C433        C  0.35055194  0.48486290  0.00090752     0.84400
O434        O  0.22860439  0.33214170  0.97636907    -0.77700
C435        C  0.29804391  0.39924641  0.60769931     0.84500
C436        C  0.35067581  0.36638083  0.00108351     0.84800
O437        O  0.32411196  0.35148742  0.51861360    -0.80100
O438        O  0.22869903  0.39695688  0.72648803    -0.77600
C439        C  0.29879018  0.39961611  0.64858379     0.83400
O440        O  0.24457784  0.31954446  0.77891782    -0.78700
O441        O  0.36062055  0.39377876  0.73570141    -0.80200
O442        O  0.32404042  0.47314957  0.76852114    -0.80000
O443        O  0.24462899  0.42536997  0.77917381    -0.78600
Zn444      Zn  0.25759396  0.37901267  0.71813396     1.55700
O445        O  0.36053206  0.46739592  0.73557155    -0.80000
Cd446      Cd  0.28926230  0.42829545  0.78488432     1.59700
Cd447      Cd  0.28918816  0.36135869  0.78482836     1.59600
O448        O  0.29628734  0.42160724  0.84068804    -0.80000
O449        O  0.29298139  0.39670697  0.75247725    -1.90500
Cd450      Cd  0.33502963  0.41776475  0.72424233     1.59900
O451        O  0.29605525  0.37502527  0.84066920    -0.80000
O452        O  0.32543265  0.41292540  0.66634821    -0.78600
C453        C  0.22439012  0.31231486  0.75234249     0.83900
C454        C  0.22445430  0.41245431  0.75257595     0.83600
O455        O  0.27187141  0.38616841  0.66522553    -0.77600
C456        C  0.35057206  0.48485869  0.75090712     0.84400
O457        O  0.22863214  0.33212532  0.72635976    -0.77700
C458        C  0.29803177  0.39924353  0.85770004     0.84500
C459        C  0.35069898  0.36637937  0.75109108     0.84800
O460        O  0.32412794  0.35148699  0.76862725    -0.80100
O461        O  0.33366096  0.10745632  0.52043932    -0.77600
C462        C  0.40111825  0.10488748  0.59840897     0.83400
O463        O  0.42699665  0.18487748  0.96804917    -0.78700
O464        O  0.46886549  0.11082861  0.51127424    -0.80200
O465        O  0.35298184  0.03127916  0.97843129    -0.80000
O466        O  0.32114241  0.07892429  0.96784016    -0.78600
Zn467      Zn  0.38051751  0.12542038  0.52884580     1.55700
O468        O  0.39530659  0.03724837  0.51140845    -0.80000
Cd469      Cd  0.36291410  0.07610362  0.96212105     1.59700
Cd470      Cd  0.42983794  0.14314022  0.96215399     1.59600
O471        O  0.37662341  0.08286198  0.90630735    -0.80000
O472        O  0.39824518  0.10777900  0.49450441    -1.90500
Cd473      Cd  0.41928834  0.08683802  0.52276187     1.59900
O474        O  0.42301845  0.12947821  0.90632280    -0.80000
O475        O  0.41451390  0.09166375  0.58064337    -0.78600
C476        C  0.41402975  0.19208667  0.49461102     0.83900
C477        C  0.31390221  0.09189976  0.49437291     0.83600
O478        O  0.38759754  0.11826285  0.58176990    -0.77600
C479        C  0.36790212  0.01968377  0.99602817     0.84400
O480        O  0.39846371  0.17229053  0.52061914    -0.77700
C481        C  0.40075066  0.10525089  0.88929361     0.84500
C482        C  0.48637725  0.13819925  0.99582581     0.84800
O483        O  0.47471678  0.15308616  0.97829202    -0.80100
O484        O  0.33367700  0.10745798  0.77044207    -0.77600
C485        C  0.40112539  0.10488457  0.84841102     0.83400
O486        O  0.42702423  0.18487810  0.71805012    -0.78700
O487        O  0.46888215  0.11083059  0.76128085    -0.80200
O488        O  0.35300327  0.03127605  0.72843205    -0.80000
O489        O  0.32116014  0.07891824  0.71785335    -0.78600
Zn490      Zn  0.38053307  0.12541988  0.77884591     1.55700
O491        O  0.39532428  0.03724596  0.76141209    -0.80000
Cd492      Cd  0.36293196  0.07610087  0.71212720     1.59700
Cd493      Cd  0.42985789  0.14313692  0.71215114     1.59600
O494        O  0.37662866  0.08286329  0.65631001    -0.80000
O495        O  0.39826003  0.10777622  0.74450645    -1.90500
Cd496      Cd  0.41930384  0.08683641  0.77276719     1.59900
O497        O  0.42302489  0.12947826  0.65631844    -0.80000
O498        O  0.41452345  0.09166071  0.83064994    -0.78600
C499        C  0.41404949  0.19208575  0.74461474     0.83900
C500        C  0.31391493  0.09189438  0.74438082     0.83600
O501        O  0.38760794  0.11826069  0.83176745    -0.77600
C502        C  0.36792283  0.01968022  0.74602978     0.85600
O503        O  0.39848371  0.17229024  0.77062332    -0.77700
C504        C  0.40075163  0.10525327  0.63929185     0.84500
C505        C  0.48639724  0.13819267  0.74582279     0.84800
O506        O  0.47473695  0.15307601  0.72828074    -0.80100
O507        O  0.17403347  0.27751629  0.97618196    -0.77600
C508        C  0.10652734  0.20733375  0.89815871     0.83400
O509        O  0.08080553  0.26149666  0.52877823    -0.78700
O510        O  0.03865778  0.14561046  0.98515153    -0.80200
O511        O  0.15460153  0.18192757  0.51814344    -0.80000
O512        O  0.18653037  0.26146421  0.52873027    -0.78600
Zn513      Zn  0.12714691  0.24853707  0.96776114     1.55700
O514        O  0.11226462  0.14546441  0.98519994    -0.80000
Cd515      Cd  0.14472836  0.21683992  0.53442344     1.59700
Cd516      Cd  0.07785971  0.21687630  0.53446666     1.59600
O517        O  0.13105589  0.20990944  0.59024319    -0.80000
O518        O  0.10940342  0.21312465  0.00204320    -1.90500
Cd519      Cd  0.08829536  0.17108321  0.97377564     1.59900
O520        O  0.08458012  0.20990141  0.59026813    -0.80000
O521        O  0.09313591  0.18069643  0.91589940    -0.78600
C522        C  0.09371562  0.28168688  0.00221453     0.83900
C523        C  0.19378888  0.28172360  0.00224513     0.83600
O524        O  0.12004000  0.23425218  0.91482145    -0.77600
C525        C  0.13967637  0.15536707  0.00058814     0.84400
O526        O  0.10919265  0.27744543  0.97609916    -0.77700
C527        C  0.10689319  0.20805056  0.60727662     0.84500
C528        C  0.02122177  0.15556488  0.00057563     0.84800
O529        O  0.03297343  0.18209673  0.51818745    -0.80100
O530        O  0.17406633  0.27749744  0.72616810    -0.77600
C531        C  0.10653369  0.20731892  0.64815996     0.83400
O532        O  0.08082583  0.26150103  0.77875664    -0.78700
O533        O  0.03867830  0.14559800  0.73516362    -0.80200
O534        O  0.15461674  0.18192695  0.76815668    -0.80000
O535        O  0.18654408  0.26146448  0.77873220    -0.78600
Zn536      Zn  0.12717713  0.24852848  0.71775565     1.55700
O537        O  0.11229032  0.14546129  0.73520265    -0.80000
Cd538      Cd  0.14474196  0.21684122  0.78443060     1.59700
Cd539      Cd  0.07787552  0.21688171  0.78445154     1.59600
O540        O  0.13106223  0.20992010  0.84025037    -0.80000
O541        O  0.10942642  0.21311897  0.75204184    -1.90500
Cd542      Cd  0.08831519  0.17107413  0.72378053     1.59900
O543        O  0.08458734  0.20991413  0.84025663    -0.80000
O544        O  0.09314252  0.18068234  0.66590255    -0.78600
C545        C  0.09374963  0.28168765  0.75219732     0.83900
C546        C  0.19381571  0.28170999  0.75223972     0.83600
O547        O  0.12005646  0.23423807  0.66482043    -0.77600
C548        C  0.13969869  0.15536264  0.75059899     0.84400
O549        O  0.10923548  0.27744845  0.72608948    -0.77700
C550        C  0.10689735  0.20806518  0.85727500     0.84500
C551        C  0.02124207  0.15555926  0.75057198     0.84800
O552        O  0.03298962  0.18210375  0.76816993    -0.80100
O553        O  0.23591951  0.61817096  0.08169498    -0.77600
C554        C  0.28332858  0.59188695  0.99434093     0.83400
O555        O  0.26319715  0.68478093  0.46796382    -0.78700
O556        O  0.21149159  0.58271219  0.40623594    -0.80200
O557        O  0.14724435  0.53693876  0.01136427    -0.80000
O558        O  0.18235753  0.59140696  0.08058148    -0.78600
Zn559      Zn  0.25018849  0.62533449  0.02877936     1.55700
O560        O  0.18374388  0.53118033  0.47841319    -0.80000
Cd561      Cd  0.17274999  0.58657055  0.02268907     1.59700
Cd562      Cd  0.21858737  0.64296200  0.46208190     1.59600
O563        O  0.14715759  0.61055610  0.01121988    -0.80000
O564        O  0.21479394  0.60762311  0.99444494    -1.90500
Cd565      Cd  0.21852048  0.57603241  0.46204448     1.59900
O566        O  0.18364324  0.65282773  0.47826187    -0.80000
O567        O  0.26315462  0.57896000  0.46775803    -0.78600
C568        C  0.28338129  0.69202035  0.99453458     0.83900
C569        C  0.20900237  0.60471467  0.09834155     0.83600
O570        O  0.27909274  0.60740224  0.02041851    -0.77600
C571        C  0.15721297  0.51947249  0.49602813     0.84400
O572        O  0.27914116  0.67222318  0.02053336    -0.77700
C573        C  0.15707476  0.63793943  0.49580232     0.84500
C574        C  0.20973899  0.60507129  0.38922295     0.84800
O575        O  0.21171120  0.62928730  0.40625170    -0.80100
O576        O  0.23592121  0.61815634  0.33170221    -0.77600
C577        C  0.28335025  0.59188657  0.24435436     0.83400
O578        O  0.26321935  0.68477279  0.21798626    -0.78700
O579        O  0.21150508  0.58271975  0.15623326    -0.80200
O580        O  0.14726863  0.53693130  0.26135176    -0.80000
O581        O  0.18235928  0.59139680  0.33057088    -0.78600
Zn582      Zn  0.25020465  0.62532220  0.27879378     1.55700
O583        O  0.18376647  0.53117928  0.22841356    -0.80000
Cd584      Cd  0.17276631  0.58656165  0.27267771     1.59700
Cd585      Cd  0.21860790  0.64296290  0.21209629     1.59600
O586        O  0.14717186  0.61054348  0.26120339    -0.80000
O587        O  0.21481700  0.60761941  0.24445014    -1.90500
Cd588      Cd  0.21853850  0.57603411  0.21204144     1.59900
O589        O  0.18367143  0.65283675  0.22828607    -0.80000
O590        O  0.26317480  0.57896722  0.21775729    -0.78600
C591        C  0.28340963  0.69201083  0.24455975     0.83900
C592        C  0.20899974  0.60470272  0.34833911     0.83600
O593        O  0.27910467  0.60738407  0.27044114    -0.77600
C594        C  0.15723300  0.51946942  0.24602449     0.84400
O595        O  0.27916680  0.67221137  0.27055715    -0.77700
C596        C  0.15709508  0.63794191  0.24580970     0.84500
C597        C  0.20975134  0.60508116  0.13922658     0.84800
O598        O  0.21172742  0.62929622  0.15626228    -0.80100
O599        O  0.12018088  0.88606885  0.41515518    -0.77600
C600        C  0.19387829  0.91245241  0.50256221     0.83400
O601        O  0.08074758  0.81944725  0.02884744    -0.78700
O602        O  0.13113315  0.92146851  0.09061683    -0.80200
O603        O  0.11246441  0.96708589  0.48551056    -0.80000
O604        O  0.09326176  0.91266464  0.41626982    -0.78600
Zn605      Zn  0.12726659  0.87892538  0.46807994     1.55700
O606        O  0.15476545  0.97305757  0.01850968    -0.80000
Cd607      Cd  0.08848606  0.91749567  0.47415201     1.59700
Cd608      Cd  0.07791430  0.86119009  0.03476531     1.59600
O609        O  0.03890729  0.89350159  0.48562283    -0.80000
O610        O  0.10952516  0.89655428  0.50241872    -1.90500
Cd611      Cd  0.14484052  0.92823364  0.03480832     1.59900
O612        O  0.03303636  0.85125146  0.01861778    -0.80000
O613        O  0.18661907  0.92542330  0.02909882    -0.78600
C614        C  0.09374389  0.81224802  0.50228600     0.83900
C615        C  0.10665585  0.89943649  0.39850969     0.83600
O616        O  0.17412437  0.89690100  0.47648969    -0.77600
C617        C  0.13986108  0.98465098  0.50090393     0.84400
O618        O  0.10932741  0.83205807  0.47629718    -0.77700
C619        C  0.02137967  0.86613525  0.00106834     0.84500
C620        C  0.10701290  0.89907456  0.10763281     0.84800
O621        O  0.08474428  0.87484529  0.09060497    -0.80100
O622        O  0.12018354  0.88607715  0.16514984    -0.77600
C623        C  0.19389132  0.91244832  0.25254772     0.83400
O624        O  0.08078342  0.81944559  0.27883433    -0.78700
O625        O  0.13114916  0.92145961  0.34061300    -0.80200
O626        O  0.11247765  0.96708433  0.23552699    -0.80000
O627        O  0.09325936  0.91266783  0.16628503    -0.78600
Zn628      Zn  0.12728139  0.87892972  0.21806770     1.55700
O629        O  0.15480192  0.97305054  0.26849693    -0.80000
Cd630      Cd  0.08849631  0.91749545  0.22416813     1.59700
Cd631      Cd  0.07793867  0.86117975  0.28475535     1.59600
O632        O  0.03891953  0.89350053  0.23564467    -0.80000
O633        O  0.10954109  0.89655223  0.25241673    -1.90500
Cd634      Cd  0.14486338  0.92822285  0.28480437     1.59900
O635        O  0.03305901  0.85123146  0.26859761    -0.80000
O636        O  0.18663341  0.92539972  0.27909157    -0.78600
C637        C  0.09377100  0.81225272  0.25226986     0.83900
C638        C  0.10665167  0.89944295  0.14851529     0.83600
O639        O  0.17414107  0.89690776  0.22646714    -0.77600
C640        C  0.13988211  0.98464827  0.25090326     0.84400
O641        O  0.10934795  0.83206186  0.22627764    -0.77700
C642        C  0.02140156  0.86612343  0.25106712     0.84500
C643        C  0.10702629  0.89906564  0.35762635     0.84800
O644        O  0.08476117  0.87483499  0.34059605    -0.80100
O645        O  0.39854426  0.72688707  0.02076340    -0.77600
C646        C  0.40124067  0.79700303  0.09869287     0.83400
O647        O  0.32123429  0.74286725  0.46812095    -0.78700
O648        O  0.39548248  0.85886192  0.01166509    -0.80200
O649        O  0.47480015  0.82223095  0.47869052    -0.80000
O650        O  0.42696798  0.74283174  0.46809673    -0.78600
Zn651      Zn  0.38060081  0.75580373  0.02909103     1.55700
O652        O  0.46909618  0.85872848  0.01170305    -0.80000
Cd653      Cd  0.42991461  0.78745297  0.46239451     1.59700
Cd654      Cd  0.36304034  0.78749329  0.46241867     1.59600
O655        O  0.42320039  0.79442715  0.40659010    -0.80000
O656        O  0.39835106  0.79121073  0.99480344    -1.90500
Cd657      Cd  0.41945923  0.83325054  0.02307451     1.59900
O658        O  0.37672679  0.79442590  0.40659975    -0.80000
O659        O  0.41463247  0.82364036  0.08095236    -0.78600
C660        C  0.31395849  0.72262342  0.99461711     0.83900
C661        C  0.41403559  0.72264630  0.99466448     0.83600
O662        O  0.38771757  0.77008593  0.08202880    -0.77600
C663        C  0.48654446  0.84877014  0.49630007     0.84400
O664        O  0.33371329  0.72683932  0.02068319    -0.77700
C665        C  0.40089215  0.79628187  0.38957420     0.84500
C666        C  0.36808183  0.84896534  0.49627625     0.84800
O667        O  0.35316352  0.82240430  0.47871124    -0.80100
O668        O  0.38774879  0.77009432  0.33203101    -0.77600
C669        C  0.31398683  0.72261257  0.24464182     0.83400
O670        O  0.42697443  0.74282355  0.21808926    -0.78700
O671        O  0.37671759  0.79440721  0.15661219    -0.80200
O672        O  0.39551260  0.85886727  0.26164957    -0.80000
O673        O  0.41464782  0.82364869  0.33094648    -0.78600
Zn674      Zn  0.38063583  0.75580399  0.27909856     1.55700
O675        O  0.35316699  0.82238883  0.22873226    -0.80000
Cd676      Cd  0.41948341  0.83325127  0.27306764     1.59700
Cd677      Cd  0.42992349  0.78744606  0.21238758     1.59600
O678        O  0.46912060  0.85872084  0.26170147    -0.80000
O679        O  0.39837415  0.79120714  0.24480558    -1.90500
Cd680      Cd  0.36304635  0.78748038  0.21243555     1.59900
O681        O  0.47481234  0.82222158  0.22868428    -0.80000
O682        O  0.32124719  0.74285507  0.21814799    -0.78600
C683        C  0.41406808  0.72264994  0.24466501     0.83900
C684        C  0.40126031  0.79701326  0.34869062     0.83600
O685        O  0.33374827  0.72682694  0.27069871    -0.77600
C686        C  0.36809269  0.84895750  0.24628080     0.84400
O687        O  0.39859129  0.72689763  0.27077663    -0.77700
C688        C  0.48655820  0.84875972  0.24629730     0.84500
C689        C  0.40088140  0.79626847  0.13957715     0.84800
O690        O  0.42319734  0.79442039  0.15658431    -0.80100
O691        O  0.22869130  0.89697145  0.47649591    -0.77600
C692        C  0.29877499  0.89961384  0.39858429     0.83400
O693        O  0.24455502  0.81955306  0.02891802    -0.78700
O694        O  0.36060888  0.89378732  0.48570256    -0.80200
O695        O  0.32402309  0.97315458  0.01852747    -0.80000
O696        O  0.24461085  0.92537465  0.02919495    -0.78600
Zn697      Zn  0.25757968  0.87902049  0.46813759     1.55700
O698        O  0.36051283  0.96739975  0.48556719    -0.80000
Cd699      Cd  0.28924796  0.92830108  0.03489561     1.59700
Cd700      Cd  0.28916917  0.86136258  0.03482242     1.59600
O701        O  0.29629163  0.92161334  0.09069451    -0.80000
O702        O  0.29296779  0.89671106  0.50247941    -1.90500
Cd703      Cd  0.33501392  0.91776865  0.47424261     1.59900
O704        O  0.29605465  0.87502895  0.09066182    -0.80000
O705        O  0.32541644  0.91292348  0.41635027    -0.78600
C706        C  0.22437130  0.81232138  0.50234988     0.83900
C707        C  0.22444343  0.91246077  0.50259121     0.83600
O708        O  0.27185522  0.88616963  0.41522483    -0.77600
C709        C  0.35055414  0.98486196  0.50090673     0.84400
O710        O  0.22861141  0.83213451  0.47637049    -0.77700
C711        C  0.29804070  0.89924882  0.10769857     0.84500
C712        C  0.35068547  0.86638449  0.50108395     0.84800
O713        O  0.32410111  0.85148428  0.01861101    -0.80100
O714        O  0.22869944  0.89695732  0.22648883    -0.77600
C715        C  0.29878829  0.89961793  0.14858308     0.83400
O716        O  0.24457792  0.81954410  0.27891557    -0.78700
O717        O  0.36062024  0.89377884  0.23569848    -0.80200
O718        O  0.32404089  0.97314931  0.26852283    -0.80000
O719        O  0.24462942  0.92536951  0.27917533    -0.78600
Zn720      Zn  0.25759372  0.87901296  0.21813390     1.55700
O721        O  0.36053179  0.96739606  0.23557111    -0.80000
Cd722      Cd  0.28926289  0.92829485  0.28488546     1.59700
Cd723      Cd  0.28918812  0.86135806  0.28482617     1.59600
O724        O  0.29628926  0.92160570  0.34068871    -0.80000
O725        O  0.29298154  0.89670719  0.25247657    -1.90500
Cd726      Cd  0.33502920  0.91776513  0.22424078     1.59900
O727        O  0.29605610  0.87502322  0.34066729    -0.80000
O728        O  0.32543115  0.91292716  0.16634678    -0.78600
C729        C  0.22439008  0.81231478  0.25234103     0.83900
C730        C  0.22445473  0.91245420  0.25257667     0.83600
O731        O  0.27186993  0.88616958  0.16522560    -0.77600
C732        C  0.35057219  0.98485865  0.25090788     0.84400
O733        O  0.22863183  0.83212569  0.22635847    -0.77700
C734        C  0.29803381  0.89924148  0.35769937     0.84500
C735        C  0.35069855  0.86637926  0.25108784     0.84800
O736        O  0.32412755  0.85148673  0.26862391    -0.80100
O737        O  0.33365148  0.60745069  0.02043913    -0.77600
C738        C  0.40111343  0.60488576  0.09840859     0.83400
O739        O  0.42700736  0.68488049  0.46804803    -0.78700
O740        O  0.46886218  0.61083221  0.01127274    -0.80200
O741        O  0.35298471  0.53127927  0.47843096    -0.80000
O742        O  0.32115003  0.57892853  0.46784130    -0.78600
Zn743      Zn  0.38050865  0.62541620  0.02884650     1.55700
O744        O  0.39530470  0.53724943  0.01140757    -0.80000
Cd745      Cd  0.36291995  0.57610523  0.46212137     1.59700
Cd746      Cd  0.42984522  0.64314081  0.46215294     1.59600
O747        O  0.37662813  0.58286360  0.40630731    -0.80000
O748        O  0.39823872  0.60777765  0.99450464    -1.90500
Cd749      Cd  0.41928494  0.58683908  0.02276077     1.59900
O750        O  0.42302390  0.62947911  0.40632148    -0.80000
O751        O  0.41451155  0.59166487  0.08064231    -0.78600
C752        C  0.41401926  0.69208300  0.99461231     0.83900
C753        C  0.31389409  0.59189607  0.99437496     0.83600
O754        O  0.38758937  0.61825817  0.08177030    -0.77600
C755        C  0.36790410  0.51968313  0.49602825     0.84400
O756        O  0.39845357  0.67228645  0.02062092    -0.77700
C757        C  0.40075506  0.60525219  0.38929283     0.84500
C758        C  0.48638165  0.63819440  0.49582514     0.84800
O759        O  0.47472267  0.65308210  0.47828999    -0.80100
O760        O  0.33367736  0.60745883  0.27044285    -0.77600
C761        C  0.40112855  0.60488580  0.34841023     0.83400
O762        O  0.42702422  0.68487792  0.21804837    -0.78700
O763        O  0.46888260  0.61083039  0.26127787    -0.80200
O764        O  0.35300248  0.53127579  0.22843357    -0.80000
O765        O  0.32115947  0.57891812  0.21785483    -0.78600
Zn766      Zn  0.38053387  0.62542033  0.27884594     1.55700
O767        O  0.39532465  0.53724611  0.26141159    -0.80000
Cd768      Cd  0.36293095  0.57610047  0.21212825     1.59700
Cd769      Cd  0.42985752  0.64313645  0.21214949     1.59600
O770        O  0.37662574  0.58286236  0.15631049    -0.80000
O771        O  0.39826012  0.60777630  0.24450592    -1.90500
Cd772      Cd  0.41930469  0.58683673  0.27276555     1.59900
O773        O  0.42302264  0.62947682  0.15631711    -0.80000
O774        O  0.41452627  0.59166202  0.33064830    -0.78600
C775        C  0.41404997  0.69208589  0.24461330     0.83900
C776        C  0.31391491  0.59189511  0.24438220     0.83600
O777        O  0.38761029  0.61826155  0.33176752    -0.77600
C778        C  0.36792263  0.51968020  0.24603049     0.85600
O779        O  0.39848473  0.67229073  0.27062244    -0.77700
C780        C  0.40074834  0.60525201  0.13929140     0.84500
C781        C  0.48639759  0.63819235  0.24581961     0.84800
O782        O  0.47473717  0.65307566  0.22827765    -0.80100
O783        O  0.17404158  0.77750887  0.47618361    -0.77600
C784        C  0.10653002  0.70732979  0.39815857     0.83400
O785        O  0.08080241  0.76150307  0.02878072    -0.78700
O786        O  0.03866182  0.64560387  0.48515214    -0.80200
O787        O  0.15459989  0.68193471  0.01813751    -0.80000
O788        O  0.18652463  0.76147062  0.02872640    -0.78600
Zn789      Zn  0.12715426  0.74853155  0.46776259     1.55700
O790        O  0.11227004  0.64546024  0.48519792    -0.80000
Cd791      Cd  0.14472477  0.71684547  0.03441957     1.59700
Cd792      Cd  0.07785592  0.71688217  0.03446730     1.59600
O793        O  0.13105358  0.70991286  0.09023970    -0.80000
O794        O  0.10940811  0.71311888  0.50204421    -1.90500
Cd795      Cd  0.08829931  0.67107778  0.47377507     1.59900
O796        O  0.08457844  0.70990631  0.09026800    -0.80000
O797        O  0.09313739  0.68069205  0.41589862    -0.78600
C798        C  0.09372123  0.78168131  0.50221501     0.83900
C799        C  0.19379593  0.78171672  0.50224663     0.83600
O800        O  0.12004564  0.73424775  0.41482227    -0.77600
C801        C  0.13968004  0.65536172  0.50059042     0.84400
O802        O  0.10920191  0.77744120  0.47610116    -0.77700
C803        C  0.10689157  0.70805412  0.10727475     0.84500
C804        C  0.02122596  0.65555886  0.50057542     0.84800
O805        O  0.03296896  0.68210247  0.01818844    -0.80100
O806        O  0.17406617  0.77749738  0.22616625    -0.77600
C807        C  0.10653315  0.70732117  0.14815806     0.83400
O808        O  0.08082583  0.76150028  0.27875764    -0.78700
O809        O  0.03867894  0.64559869  0.23515922    -0.80200
O810        O  0.15461704  0.68192745  0.26815534    -0.80000
O811        O  0.18654403  0.76146456  0.27873029    -0.78600
Zn812      Zn  0.12717685  0.74852879  0.21775506     1.55700
O813        O  0.11229075  0.64546159  0.23520123    -0.80000
Cd814      Cd  0.14474229  0.71684140  0.28442873     1.59700
Cd815      Cd  0.07787559  0.71688047  0.28445213     1.59600
O816        O  0.13106384  0.70991935  0.34024851    -0.80000
O817        O  0.10942631  0.71311877  0.25204063    -1.90500
Cd818      Cd  0.08831611  0.67107474  0.22377774     1.59900
O819        O  0.08458788  0.70991096  0.34025746    -0.80000
O820        O  0.09314411  0.68068412  0.16589975    -0.78600
C821        C  0.09374957  0.78168728  0.25219880     0.83900
C822        C  0.19381548  0.78171011  0.25223745     0.83600
O823        O  0.12005472  0.73423982  0.16481947    -0.77600
C824        C  0.13969897  0.65536300  0.25059816     0.84400
O825        O  0.10923577  0.77744860  0.22609078    -0.77700
C826        C  0.10689877  0.70806254  0.35727456     0.84500
C827        C  0.02124246  0.65555899  0.25056913     0.84800
O828        O  0.03298978  0.68210248  0.26816917    -0.80100
O829        O  0.23592536  0.61817382  0.58169574    -0.77600
C830        C  0.28333835  0.59189326  0.49434431     0.83400
O831        O  0.26318971  0.68477794  0.96796103    -0.78700
O832        O  0.21148566  0.58270981  0.90623421    -0.80200
O833        O  0.14725432  0.53693636  0.51136377    -0.80000
O834        O  0.18236326  0.59140590  0.58057982    -0.78600
Zn835      Zn  0.25019622  0.62533712  0.52878103     1.55700
O836        O  0.18373176  0.53118021  0.97841188    -0.80000
Cd837      Cd  0.17275720  0.58656847  0.52268788     1.59700
Cd838      Cd  0.21857976  0.64295997  0.96207861     1.59600
O839        O  0.14716229  0.61055100  0.51121785    -0.80000
O840        O  0.21480207  0.60762441  0.49444621    -1.90500
Cd841      Cd  0.21851175  0.57603009  0.96204368     1.59900
O842        O  0.18363674  0.65282848  0.97825680    -0.80000
O843        O  0.26314470  0.57895365  0.96775887    -0.78600
C844        C  0.28338921  0.69202331  0.49453606     0.83900
C845        C  0.20900750  0.60471585  0.59834086     0.83600
O846        O  0.27910056  0.60740455  0.52042083    -0.77600
C847        C  0.15720119  0.51947393  0.99602753     0.84400
O848        O  0.27914951  0.67222580  0.52053507    -0.77700
C849        C  0.15706970  0.63794310  0.99580042     0.84500
C850        C  0.20973416  0.60506900  0.88922013     0.84800
O851        O  0.21170556  0.62928492  0.90624827    -0.80100
O852        O  0.23591893  0.61815538  0.83170060    -0.77600
C853        C  0.28335024  0.59188563  0.74435347     0.83400
O854        O  0.26321927  0.68477291  0.71798491    -0.78700
O855        O  0.21150796  0.58272039  0.65623223    -0.80200
O856        O  0.14726736  0.53692999  0.76134506    -0.80000
O857        O  0.18235691  0.59139345  0.83056646    -0.78600
Zn858      Zn  0.25020417  0.62532122  0.77879231     1.55700
O859        O  0.18376658  0.53117824  0.72840961    -0.80000
Cd860      Cd  0.17276530  0.58655992  0.77267325     1.59700
Cd861      Cd  0.21860792  0.64296279  0.71209495     1.59600
O862        O  0.14717137  0.61054258  0.76120083    -0.80000
O863        O  0.21481705  0.60761882  0.74444790    -1.90500
Cd864      Cd  0.21853922  0.57603350  0.71203979     1.59900
O865        O  0.18367128  0.65283683  0.72828527    -0.80000
O866        O  0.26317503  0.57896641  0.71775586    -0.78600
C867        C  0.28340969  0.69201051  0.74455760     0.83900
C868        C  0.20899671  0.60470047  0.84833609     0.83600
O869        O  0.27910420  0.60738252  0.77044030    -0.77600
C870        C  0.15723237  0.51946825  0.74601862     0.84400
O871        O  0.27916698  0.67221055  0.77055490    -0.77700
C872        C  0.15709485  0.63794166  0.74580880     0.84500
C873        C  0.20975471  0.60508200  0.63922552     0.84800
O874        O  0.21172931  0.62929653  0.65626097    -0.80100
O875        O  0.12017761  0.88607412  0.91515618    -0.77600
C876        C  0.19387300  0.91245786  0.00255859     0.83400
O877        O  0.08075295  0.81944205  0.52884582    -0.78700
O878        O  0.13113722  0.92146402  0.59061433    -0.80200
O879        O  0.11245364  0.96708723  0.98550852    -0.80000
O880        O  0.09325464  0.91266595  0.91626739    -0.78600
Zn881      Zn  0.12726166  0.87893113  0.96808180     1.55700
O882        O  0.15477710  0.97305451  0.51850775    -0.80000
Cd883      Cd  0.08847729  0.91749718  0.97415004     1.59700
Cd884      Cd  0.07792002  0.86118511  0.53476238     1.59600
O885        O  0.03889801  0.89350072  0.98562013    -0.80000
O886        O  0.10951835  0.89655884  0.00242001    -1.90500
Cd887      Cd  0.14484713  0.92822854  0.53480688     1.59900
O888        O  0.03304305  0.85124799  0.51861321    -0.80000
O889        O  0.18662317  0.92541391  0.52909780    -0.78600
C890        C  0.09373762  0.81225320  0.00228863     0.83900
C891        C  0.10665147  0.89943972  0.89850873     0.83600
O892        O  0.17412008  0.89690755  0.97649305    -0.77600
C893        C  0.13984924  0.98465289  0.00090422     0.84400
O894        O  0.10932228  0.83206409  0.97629897    -0.77700
C895        C  0.02138779  0.86613467  0.50106719     0.84500
C896        C  0.10701595  0.89907070  0.60762962     0.84800
O897        O  0.08474808  0.87484099  0.59060163    -0.80100
O898        O  0.12018530  0.88607553  0.66514827    -0.77600
C899        C  0.19389049  0.91244772  0.75254638     0.83400
O900        O  0.08078368  0.81944608  0.77883322    -0.78700
O901        O  0.13114655  0.92146113  0.84061145    -0.80200
O902        O  0.11247746  0.96708302  0.73551947    -0.80000
O903        O  0.09325888  0.91266387  0.66627985    -0.78600
Zn904      Zn  0.12728125  0.87892909  0.71806642     1.55700
O905        O  0.15480031  0.97304962  0.76849298    -0.80000
Cd906      Cd  0.08849570  0.91749372  0.72416268     1.59700
Cd907      Cd  0.07793829  0.86118010  0.78475392     1.59600
O908        O  0.03891916  0.89349952  0.73564043    -0.80000
O909        O  0.10954025  0.89655174  0.75241441    -1.90500
Cd910      Cd  0.14486191  0.92822256  0.78480250     1.59900
O911        O  0.03305887  0.85123162  0.76859589    -0.80000
O912        O  0.18663238  0.92539942  0.77909035    -0.78600
C913        C  0.09377086  0.81225292  0.75226855     0.83900
C914        C  0.10665299  0.89943989  0.64851191     0.83600
O915        O  0.17414044  0.89690690  0.72646637    -0.77600
C916        C  0.13988124  0.98464708  0.75089732     0.84400
O917        O  0.10934756  0.83206171  0.72627600    -0.77700
C918        C  0.02140137  0.86612320  0.75106487     0.84500
C919        C  0.10702321  0.89906771  0.85762498     0.84800
O920        O  0.08475885  0.87483641  0.84059469    -0.80100
O921        O  0.39855641  0.72689194  0.52076269    -0.77600
C922        C  0.40124579  0.79700545  0.59869285     0.83400
O923        O  0.32122740  0.74286320  0.96811820    -0.78700
O924        O  0.39549333  0.85886698  0.51166377    -0.80200
O925        O  0.47479273  0.82222813  0.97869512    -0.80000
O926        O  0.42695947  0.74282873  0.96810011    -0.78600
Zn927      Zn  0.38061083  0.75580687  0.52909001     1.55700
O928        O  0.46910548  0.85872955  0.51170496    -0.80000
Cd929      Cd  0.42990743  0.78745014  0.96239777     1.59700
Cd930      Cd  0.36303266  0.78748993  0.96241759     1.59600
O931        O  0.42319588  0.79442535  0.90659289    -0.80000
O932        O  0.39835985  0.79121413  0.49480264    -1.90500
Cd933      Cd  0.41946808  0.83325381  0.52307475     1.59900
O934        O  0.37672179  0.79442323  0.90659928    -0.80000
O935        O  0.41463765  0.82364305  0.58095285    -0.78600
C936        C  0.31396702  0.72262614  0.49461880     0.83900
C937        C  0.41404637  0.72265038  0.49466196     0.83600
O938        O  0.38772529  0.77008869  0.58202807    -0.77600
C939        C  0.48653614  0.84876873  0.99630153     0.84400
O940        O  0.33372344  0.72684103  0.52068166    -0.77700
C941        C  0.40088824  0.79628002  0.88957539     0.84500
C942        C  0.36807146  0.84896072  0.99627637     0.84800
O943        O  0.35315397  0.82240029  0.97870994    -0.80100
O944        O  0.38774571  0.77009329  0.83203166    -0.77600
C945        C  0.31398702  0.72261227  0.74464049     0.83400
O946        O  0.42697385  0.74282309  0.71809061    -0.78700
O947        O  0.37672037  0.79440971  0.65661133    -0.80200
O948        O  0.39551250  0.85886647  0.76165297    -0.80000
O949        O  0.41464827  0.82364768  0.83094815    -0.78600
Zn950      Zn  0.38063519  0.75580373  0.77909887     1.55700
O951        O  0.35316777  0.82238952  0.72873324    -0.80000
Cd952      Cd  0.41948377  0.83325075  0.77306925     1.59700
Cd953      Cd  0.42992325  0.78744542  0.71238885     1.59600
O954        O  0.46912064  0.85872061  0.76170128    -0.80000
O955        O  0.39837401  0.79120715  0.74480633    -1.90500
Cd956      Cd  0.36304716  0.78748119  0.71243495     1.59900
O957        O  0.47481203  0.82222087  0.72868460    -0.80000
O958        O  0.32124743  0.74285524  0.71814663    -0.78600
C959        C  0.41406748  0.72264966  0.74466683     0.83900
C960        C  0.40125833  0.79701197  0.84869180     0.83600
O961        O  0.33374824  0.72682654  0.77069709    -0.77600
C962        C  0.36809293  0.84895738  0.74628344     0.84400
O963        O  0.39859112  0.72689769  0.77077823    -0.77700
C964        C  0.48655802  0.84875942  0.74629663     0.84500
C965        C  0.40088427  0.79627001  0.63957730     0.84800
O966        O  0.42319870  0.79442010  0.65658558    -0.80100
O967        O  0.22868792  0.89698025  0.97649502    -0.77600
C968        C  0.29877183  0.89961687  0.89858492     0.83400
O969        O  0.24456299  0.81954751  0.52891964    -0.78700
O970        O  0.36060177  0.89378506  0.98570475    -0.80200
O971        O  0.32402530  0.97315252  0.51852692    -0.80000
O972        O  0.24461520  0.92536841  0.52919406    -0.78600
Zn973      Zn  0.25757469  0.87902767  0.96813698     1.55700
O974        O  0.36050996  0.96739990  0.98556845    -0.80000
Cd975      Cd  0.28925240  0.92829747  0.53489482     1.59700
Cd976      Cd  0.28917609  0.86136024  0.53482384     1.59600
O977        O  0.29629515  0.92161060  0.59069418    -0.80000
O978        O  0.29296241  0.89671447  0.00247935    -1.90500
Cd979      Cd  0.33500922  0.91776887  0.97424406     1.59900
O980        O  0.29605920  0.87502674  0.59066342    -0.80000
O981        O  0.32541286  0.91292310  0.91635171    -0.78600
C982        C  0.22436341  0.81232844  0.00234715     0.83900
C983        C  0.22444123  0.91247178  0.00259692     0.83600
O984        O  0.27185159  0.88617664  0.91522453    -0.77600
C985        C  0.35055201  0.98486289  0.00090756     0.84400
O986        O  0.22860433  0.83214171  0.97636908    -0.77700
C987        C  0.29804394  0.89924641  0.60769931     0.84500
C988        C  0.35067585  0.86638087  0.00108350     0.84800
O989        O  0.32411185  0.85148744  0.51861361    -0.80100
O990        O  0.22869907  0.89695690  0.72648804    -0.77600
C991        C  0.29879027  0.89961610  0.64858379     0.83400
O992        O  0.24457776  0.81954440  0.77891777    -0.78700
O993        O  0.36062059  0.89377879  0.73570141    -0.80200
O994        O  0.32404050  0.97314952  0.76852119    -0.80000
O995        O  0.24462903  0.92536999  0.77917381    -0.78600
Zn996      Zn  0.25759399  0.87901267  0.71813396     1.55700
O997        O  0.36053215  0.96739591  0.73557157    -0.80000
Cd998      Cd  0.28926236  0.92829544  0.78488431     1.59700
Cd999      Cd  0.28918811  0.86135868  0.78482836     1.59600
O1000       O  0.29628726  0.92160718  0.84068807    -0.80000
O1001       O  0.29298155  0.89670698  0.75247722    -1.90500
Cd1002     Cd  0.33502970  0.91776475  0.72424234     1.59900
O1003       O  0.29605522  0.87502527  0.84066919    -0.80000
O1004       O  0.32543274  0.91292545  0.66634824    -0.78600
C1005       C  0.22439018  0.81231484  0.75234271     0.83900
C1006       C  0.22445432  0.91245428  0.75257589     0.83600
O1007       O  0.27187143  0.88616836  0.66522548    -0.77600
C1008       C  0.35057213  0.98485866  0.75090709     0.84400
O1009       O  0.22863221  0.83212544  0.72635978    -0.77700
C1010       C  0.29803177  0.89924352  0.85770005     0.84500
C1011       C  0.35069895  0.86637940  0.75109109     0.84800
O1012       O  0.32412790  0.85148708  0.76862728    -0.80100
O1013       O  0.33366103  0.60745635  0.52043939    -0.77600
C1014       C  0.40111829  0.60488746  0.59840897     0.83400
O1015       O  0.42699666  0.68487741  0.96804911    -0.78700
O1016       O  0.46886562  0.61082865  0.51127426    -0.80200
O1017       O  0.35298168  0.53127912  0.97843129    -0.80000
O1018       O  0.32114228  0.57892432  0.96784010    -0.78600
Zn1019     Zn  0.38051753  0.62542038  0.52884580     1.55700
O1020       O  0.39530662  0.53724838  0.51140837    -0.80000
Cd1021     Cd  0.36291400  0.57610362  0.96212105     1.59700
Cd1022     Cd  0.42983798  0.64314020  0.96215398     1.59600
O1023       O  0.37662343  0.58286204  0.90630736    -0.80000
O1024       O  0.39824531  0.60777897  0.49450444    -1.90500
Cd1025     Cd  0.41928840  0.58683800  0.52276186     1.59900
O1026       O  0.42301862  0.62947824  0.90632280    -0.80000
O1027       O  0.41451390  0.59166367  0.58064338    -0.78600
C1028       C  0.41402962  0.69208664  0.49461105     0.83900
C1029       C  0.31390225  0.59189976  0.49437283     0.83600
O1030       O  0.38759759  0.61826288  0.58176991    -0.77600
C1031       C  0.36790202  0.51968375  0.99602815     0.84400
O1032       O  0.39846371  0.67229051  0.52061920    -0.77700
C1033       C  0.40075076  0.60525095  0.88929363     0.84500
C1034       C  0.48637715  0.63819924  0.99582580     0.84800
O1035       O  0.47471676  0.65308615  0.97829204    -0.80100
O1036       O  0.33367702  0.60745800  0.77044213    -0.77600
C1037       C  0.40112548  0.60488461  0.84841105     0.83400
O1038       O  0.42702420  0.68487811  0.71805014    -0.78700
O1039       O  0.46888205  0.61083053  0.76128084    -0.80200
O1040       O  0.35300320  0.53127597  0.72843203    -0.80000
O1041       O  0.32116019  0.57891826  0.71785340    -0.78600
Zn1042     Zn  0.38053311  0.62541988  0.77884593     1.55700
O1043       O  0.39532426  0.53724597  0.76141219    -0.80000
Cd1044     Cd  0.36293200  0.57610087  0.71212719     1.59700
Cd1045     Cd  0.42985783  0.64313693  0.71215114     1.59600
O1046       O  0.37662867  0.58286320  0.65631001    -0.80000
O1047       O  0.39826007  0.60777623  0.74450644    -1.90500
Cd1048     Cd  0.41930379  0.58683641  0.77276719     1.59900
O1049       O  0.42302481  0.62947829  0.65631842    -0.80000
O1050       O  0.41452349  0.59166071  0.83064996    -0.78600
C1051       C  0.41404969  0.69208583  0.74461454     0.83900
C1052       C  0.31391495  0.59189437  0.74438082     0.83600
O1053       O  0.38760803  0.61826070  0.83176746    -0.77600
C1054       C  0.36792284  0.51968022  0.74602983     0.85600
O1055       O  0.39848371  0.67229020  0.77062336    -0.77700
C1056       C  0.40075159  0.60525326  0.63929184     0.84500
C1057       C  0.48639714  0.63819256  0.74582279     0.84800
O1058       O  0.47473685  0.65307593  0.72828071    -0.80100
O1059       O  0.17403355  0.77751639  0.97618209    -0.77600
C1060       C  0.10652731  0.70733374  0.89815870     0.83400
O1061       O  0.08080551  0.76149670  0.52877819    -0.78700
O1062       O  0.03865774  0.64561046  0.98515156    -0.80200
O1063       O  0.15460150  0.68192760  0.51814347    -0.80000
O1064       O  0.18653027  0.76146413  0.52873032    -0.78600
Zn1065     Zn  0.12714693  0.74853706  0.96776115     1.55700
O1066       O  0.11226462  0.64546444  0.98519995    -0.80000
Cd1067     Cd  0.14472831  0.71683991  0.53442345     1.59700
Cd1068     Cd  0.07785963  0.71687629  0.53446664     1.59600
O1069       O  0.13105586  0.70990943  0.59024322    -0.80000
O1070       O  0.10940346  0.71312465  0.00204327    -1.90500
Cd1071     Cd  0.08829532  0.67108324  0.97377565     1.59900
O1072       O  0.08458002  0.70990140  0.59026813    -0.80000
O1073       O  0.09313582  0.68069642  0.91589940    -0.78600
C1074       C  0.09371573  0.78168693  0.00221439     0.83900
C1075       C  0.19378894  0.78172364  0.00224507     0.83600
O1076       O  0.12004014  0.73425217  0.91482145    -0.77600
C1077       C  0.13967636  0.65536707  0.00058809     0.84400
O1078       O  0.10919259  0.77744534  0.97609914    -0.77700
C1079       C  0.10689314  0.70805057  0.60727663     0.84500
C1080       C  0.02122167  0.65556477  0.00057568     0.84800
O1081       O  0.03297341  0.68209673  0.51818744    -0.80100
O1082       O  0.17406627  0.77749747  0.72616815    -0.77600
C1083       C  0.10653362  0.70731895  0.64815997     0.83400
O1084       O  0.08082577  0.76150108  0.77875659    -0.78700
O1085       O  0.03867819  0.64559793  0.73516368    -0.80200
O1086       O  0.15461679  0.68192695  0.76815667    -0.80000
O1087       O  0.18654411  0.76146448  0.77873217    -0.78600
Zn1088     Zn  0.12717710  0.74852856  0.71775567     1.55700
O1089       O  0.11229029  0.64546138  0.73520261    -0.80000
Cd1090     Cd  0.14474197  0.71684123  0.78443059     1.59700
Cd1091     Cd  0.07787547  0.71688171  0.78445154     1.59600
O1092       O  0.13106220  0.70992010  0.84025037    -0.80000
O1093       O  0.10942648  0.71311908  0.75204185    -1.90500
Cd1094     Cd  0.08831512  0.67107416  0.72378054     1.59900
O1095       O  0.08458735  0.70991412  0.84025660    -0.80000
O1096       O  0.09314243  0.68068237  0.66590256    -0.78600
C1097       C  0.09374950  0.78168769  0.75219755     0.83900
C1098       C  0.19381557  0.78171014  0.75223951     0.83600
O1099       O  0.12005638  0.73423810  0.66482043    -0.77600
C1100       C  0.13969872  0.65536271  0.75059893     0.84400
O1101       O  0.10923549  0.77744859  0.72608950    -0.77700
C1102       C  0.10689731  0.70806517  0.85727498     0.84500
C1103       C  0.02124196  0.65555926  0.75057203     0.84800
O1104       O  0.03298957  0.68210371  0.76816990    -0.80100
O1105       O  0.73591952  0.11817091  0.08169501    -0.77600
C1106       C  0.78332878  0.09188709  0.99434106     0.83400
O1107       O  0.76319713  0.18478098  0.46796390    -0.78700
O1108       O  0.71149157  0.08271214  0.40623594    -0.80200
O1109       O  0.64724437  0.03693882  0.01136433    -0.80000
O1110       O  0.68235761  0.09140700  0.08058141    -0.78600
Zn1111     Zn  0.75018856  0.12533448  0.02877935     1.55700
O1112       O  0.68374385  0.03118038  0.47841320    -0.80000
Cd1113     Cd  0.67275008  0.08657056  0.02268908     1.59700
Cd1114     Cd  0.71858731  0.14296200  0.46208191     1.59600
O1115       O  0.64715769  0.11055610  0.01121994    -0.80000
O1116       O  0.71479398  0.10762303  0.99444497    -1.90500
Cd1117     Cd  0.71852046  0.07603243  0.46204446     1.59900
O1118       O  0.68364313  0.15282774  0.47826185    -0.80000
O1119       O  0.76315457  0.07895993  0.46775809    -0.78600
C1120       C  0.78338134  0.19202027  0.99453473     0.83900
C1121       C  0.70900237  0.10471470  0.09834155     0.83600
O1122       O  0.77909284  0.10740220  0.02041855    -0.77600
C1123       C  0.65721289  0.01947252  0.49602814     0.84400
O1124       O  0.77914121  0.17222317  0.02053328    -0.77700
C1125       C  0.65707459  0.13793938  0.49580227     0.84500
C1126       C  0.70973905  0.10507124  0.38922294     0.84800
O1127       O  0.71171126  0.12928725  0.40625169    -0.80100
O1128       O  0.73592136  0.11815637  0.33170220    -0.77600
C1129       C  0.78335025  0.09188656  0.24435432     0.83400
O1130       O  0.76321938  0.18477281  0.21798622    -0.78700
O1131       O  0.71150508  0.08271979  0.15623327    -0.80200
O1132       O  0.64726874  0.03693137  0.26135175    -0.80000
O1133       O  0.68235943  0.09139683  0.33057087    -0.78600
Zn1134     Zn  0.75020469  0.12532220  0.27879379     1.55700
O1135       O  0.68376652  0.03117928  0.22841351    -0.80000
Cd1136     Cd  0.67276638  0.08656165  0.27267772     1.59700
Cd1137     Cd  0.71860787  0.14296291  0.21209629     1.59600
O1138       O  0.64717193  0.11054344  0.26120340    -0.80000
O1139       O  0.71481700  0.10761946  0.24445015    -1.90500
Cd1140     Cd  0.71853845  0.07603411  0.21204145     1.59900
O1141       O  0.68367135  0.15283682  0.22828613    -0.80000
O1142       O  0.76317470  0.07896723  0.21775726    -0.78600
C1143       C  0.78340956  0.19201081  0.24455967     0.83900
C1144       C  0.70899991  0.10470270  0.34833910     0.83600
O1145       O  0.77910477  0.10738406  0.27044112    -0.77600
C1146       C  0.65723324  0.01946949  0.24602449     0.84400
O1147       O  0.77916678  0.17221131  0.27055714    -0.77700
C1148       C  0.65709503  0.13794190  0.24580968     0.84500
C1149       C  0.70975127  0.10508118  0.13922658     0.84800
O1150       O  0.71172741  0.12929626  0.15626227    -0.80100
O1151       O  0.62018086  0.38606889  0.41515519    -0.77600
C1152       C  0.69387829  0.41245242  0.50256227     0.83400
O1153       O  0.58074764  0.31944728  0.02884750    -0.78700
O1154       O  0.63113325  0.42146856  0.09061679    -0.80200
O1155       O  0.61246433  0.46708587  0.48551058    -0.80000
O1156       O  0.59326169  0.41266464  0.41626984    -0.78600
Zn1157     Zn  0.62726662  0.37892539  0.46807993     1.55700
O1158       O  0.65476554  0.47305755  0.01850974    -0.80000
Cd1159     Cd  0.58848599  0.41749566  0.47415201     1.59700
Cd1160     Cd  0.57791437  0.36119010  0.03476530     1.59600
O1161       O  0.53890717  0.39350157  0.48562282    -0.80000
O1162       O  0.60952523  0.39655429  0.50241871    -1.90500
Cd1163     Cd  0.64484061  0.42823366  0.03480834     1.59900
O1164       O  0.53303644  0.35125151  0.01861779    -0.80000
O1165       O  0.68661919  0.42542330  0.02909881    -0.78600
C1166       C  0.59374379  0.31224802  0.50228606     0.83900
C1167       C  0.60665578  0.39943649  0.39850970     0.83600
O1168       O  0.67412431  0.39690099  0.47648964    -0.77600
C1169       C  0.63986101  0.48465096  0.50090389     0.84400
O1170       O  0.60932748  0.33205810  0.47629719    -0.77700
C1171       C  0.52137980  0.36613529  0.00106834     0.84500
C1172       C  0.60701307  0.39907457  0.10763280     0.84800
O1173       O  0.58474437  0.37484534  0.09060497    -0.80100
O1174       O  0.62018358  0.38607710  0.16514985    -0.77600
C1175       C  0.69389133  0.41244832  0.25254775     0.83400
O1176       O  0.58078349  0.31944557  0.27883438    -0.78700
O1177       O  0.63114908  0.42145963  0.34061301    -0.80200
O1178       O  0.61247760  0.46708415  0.23552702    -0.80000
O1179       O  0.59325938  0.41266774  0.16628499    -0.78600
Zn1180     Zn  0.62728136  0.37892971  0.21806768     1.55700
O1181       O  0.65480192  0.47305059  0.26849690    -0.80000
Cd1182     Cd  0.58849632  0.41749534  0.22416815     1.59700
Cd1183     Cd  0.57793872  0.36117974  0.28475536     1.59600
O1184       O  0.53891961  0.39350048  0.23564465    -0.80000
O1185       O  0.60954117  0.39655217  0.25241677    -1.90500
Cd1186     Cd  0.64486333  0.42822287  0.28480437     1.59900
O1187       O  0.53305905  0.35123142  0.26859754    -0.80000
O1188       O  0.68663331  0.42539970  0.27909155    -0.78600
C1189       C  0.59377104  0.31225271  0.25226995     0.83900
C1190       C  0.60665182  0.39944296  0.14851527     0.83600
O1191       O  0.67414110  0.39690774  0.22646714    -0.77600
C1192       C  0.63988216  0.48464821  0.25090331     0.84400
O1193       O  0.60934788  0.33206182  0.22627754    -0.77700
C1194       C  0.52140162  0.36612355  0.25106706     0.84500
C1195       C  0.60702622  0.39906566  0.35762636     0.84800
O1196       O  0.58476113  0.37483498  0.34059605    -0.80100
O1197       O  0.89854432  0.22688707  0.02076341    -0.77600
C1198       C  0.90124062  0.29700304  0.09869286     0.83400
O1199       O  0.82123423  0.24286726  0.46812094    -0.78700
O1200       O  0.89548246  0.35886192  0.01166507    -0.80200
O1201       O  0.97480007  0.32223096  0.47869051    -0.80000
O1202       O  0.92696794  0.24283174  0.46809667    -0.78600
Zn1203     Zn  0.88060086  0.25580373  0.02909103     1.55700
O1204       O  0.96909633  0.35872852  0.01170302    -0.80000
Cd1205     Cd  0.92991456  0.28745297  0.46239452     1.59700
Cd1206     Cd  0.86304027  0.28749328  0.46241867     1.59600
O1207       O  0.92320040  0.29442717  0.40659013    -0.80000
O1208       O  0.89835129  0.29121074  0.99480344    -1.90500
Cd1209     Cd  0.91945928  0.33325055  0.02307449     1.59900
O1210       O  0.87672674  0.29442591  0.40659970    -0.80000
O1211       O  0.91463249  0.32364037  0.08095235    -0.78600
C1212       C  0.81395845  0.22262347  0.99461694     0.83900
C1213       C  0.91403542  0.22264619  0.99466468     0.83600
O1214       O  0.88771760  0.27008594  0.08202879    -0.77600
C1215       C  0.98654436  0.34877018  0.49630009     0.84400
O1216       O  0.83371335  0.22683936  0.02068320    -0.77700
C1217       C  0.90089213  0.29628187  0.38957420     0.84500
C1218       C  0.86808178  0.34896533  0.49627621     0.84800
O1219       O  0.85316349  0.32240429  0.47871127    -0.80100
O1220       O  0.88774875  0.27009432  0.33203101    -0.77600
C1221       C  0.81398680  0.22261249  0.24464188     0.83400
O1222       O  0.92697439  0.24282356  0.21808918    -0.78700
O1223       O  0.87671750  0.29440721  0.15661221    -0.80200
O1224       O  0.89551255  0.35886726  0.26164959    -0.80000
O1225       O  0.91464781  0.32364870  0.33094649    -0.78600
Zn1226     Zn  0.88063582  0.25580398  0.27909857     1.55700
O1227       O  0.85316701  0.32238879  0.22873226    -0.80000
Cd1228     Cd  0.91948337  0.33325129  0.27306765     1.59700
Cd1229     Cd  0.92992344  0.28744606  0.21238757     1.59600
O1230       O  0.96912054  0.35872076  0.26170147    -0.80000
O1231       O  0.89837407  0.29120716  0.24480566    -1.90500
Cd1232     Cd  0.86304639  0.28748037  0.21243556     1.59900
O1233       O  0.97481231  0.32222153  0.22868429    -0.80000
O1234       O  0.82124720  0.24285506  0.21814798    -0.78600
C1235       C  0.91406797  0.22264995  0.24466516     0.83900
C1236       C  0.90126039  0.29701326  0.34869062     0.83600
O1237       O  0.83374824  0.22682685  0.27069859    -0.77600
C1238       C  0.86809259  0.34895744  0.24628077     0.84400
O1239       O  0.89859135  0.22689774  0.27077666    -0.77700
C1240       C  0.98655821  0.34875955  0.24629723     0.84500
C1241       C  0.90088127  0.29626848  0.13957714     0.84800
O1242       O  0.92319725  0.29442041  0.15658428    -0.80100
O1243       O  0.72869134  0.39697152  0.47649587    -0.77600
C1244       C  0.79877499  0.39961384  0.39858430     0.83400
O1245       O  0.74455499  0.31955302  0.02891803    -0.78700
O1246       O  0.86060896  0.39378735  0.48570259    -0.80200
O1247       O  0.82402308  0.47315466  0.01852746    -0.80000
O1248       O  0.74461095  0.42537465  0.02919498    -0.78600
Zn1249     Zn  0.75757968  0.37902049  0.46813760     1.55700
O1250       O  0.86051285  0.46739975  0.48556727    -0.80000
Cd1251     Cd  0.78924803  0.42830108  0.03489561     1.59700
Cd1252     Cd  0.78916913  0.36136258  0.03482242     1.59600
O1253       O  0.79629178  0.42161343  0.09069448    -0.80000
O1254       O  0.79296776  0.39671107  0.50247941    -1.90500
Cd1255     Cd  0.83501399  0.41776868  0.47424264     1.59900
O1256       O  0.79605459  0.37502892  0.09066185    -0.80000
O1257       O  0.82541650  0.41292351  0.41635026    -0.78600
C1258       C  0.72437121  0.31232145  0.50234983     0.83900
C1259       C  0.72444334  0.41246066  0.50259112     0.83600
O1260       O  0.77185522  0.38616959  0.41522485    -0.77600
C1261       C  0.85055421  0.48486194  0.50090677     0.84400
O1262       O  0.72861135  0.33213450  0.47637045    -0.77700
C1263       C  0.79804067  0.39924882  0.10769858     0.84500
C1264       C  0.85068557  0.36638452  0.50108393     0.84800
O1265       O  0.82410109  0.35148428  0.01861102    -0.80100
O1266       O  0.72869942  0.39695729  0.22648883    -0.77600
C1267       C  0.79878823  0.39961794  0.14858307     0.83400
O1268       O  0.74457788  0.31954414  0.27891567    -0.78700
O1269       O  0.86062012  0.39377884  0.23569845    -0.80200
O1270       O  0.82404098  0.47314932  0.26852283    -0.80000
O1271       O  0.74462956  0.42536951  0.27917530    -0.78600
Zn1272     Zn  0.75759375  0.37901297  0.21813387     1.55700
O1273       O  0.86053185  0.46739605  0.23557110    -0.80000
Cd1274     Cd  0.78926298  0.42829487  0.28488547     1.59700
Cd1275     Cd  0.78918806  0.36135805  0.28482618     1.59600
O1276       O  0.79628942  0.42160578  0.34068872    -0.80000
O1277       O  0.79298161  0.39670720  0.25247659    -1.90500
Cd1278     Cd  0.83502918  0.41776514  0.22424079     1.59900
O1279       O  0.79605606  0.37502318  0.34066731    -0.80000
O1280       O  0.82543112  0.41292716  0.16634677    -0.78600
C1281       C  0.72439010  0.31231479  0.25234099     0.83900
C1282       C  0.72445479  0.41245421  0.25257671     0.83600
O1283       O  0.77186991  0.38616954  0.16522559    -0.77600
C1284       C  0.85057227  0.48485865  0.25090787     0.84400
O1285       O  0.72863185  0.33212566  0.22635844    -0.77700
C1286       C  0.79803380  0.39924148  0.35769939     0.84500
C1287       C  0.85069846  0.36637930  0.25108779     0.84800
O1288       O  0.82412743  0.35148673  0.26862391    -0.80100
O1289       O  0.83365153  0.10745067  0.02043916    -0.77600
C1290       C  0.90111344  0.10488577  0.09840859     0.83400
O1291       O  0.92700738  0.18488049  0.46804803    -0.78700
O1292       O  0.96886232  0.11083226  0.01127274    -0.80200
O1293       O  0.85298469  0.03127926  0.47843093    -0.80000
O1294       O  0.82114996  0.07892849  0.46784121    -0.78600
Zn1295     Zn  0.88050869  0.12541620  0.02884651     1.55700
O1296       O  0.89530484  0.03724945  0.01140755    -0.80000
Cd1297     Cd  0.86291991  0.07610523  0.46212135     1.59700
Cd1298     Cd  0.92984528  0.14314082  0.46215293     1.59600
O1299       O  0.87662815  0.08286364  0.40630731    -0.80000
O1300       O  0.89823888  0.10777764  0.99450467    -1.90500
Cd1301     Cd  0.91928501  0.08683909  0.02276077     1.59900
O1302       O  0.92302398  0.12947911  0.40632149    -0.80000
O1303       O  0.91451159  0.09166488  0.08064230    -0.78600
C1304       C  0.91401938  0.19208306  0.99461210     0.83900
C1305       C  0.81389414  0.09189596  0.99437479     0.83600
O1306       O  0.88758940  0.11825819  0.08177032    -0.77600
C1307       C  0.86790418  0.01968314  0.49602828     0.84400
O1308       O  0.89845353  0.17228638  0.02062093    -0.77700
C1309       C  0.90075516  0.10525219  0.38929284     0.84500
C1310       C  0.98638168  0.13819442  0.49582520     0.84800
O1311       O  0.97472280  0.15308218  0.47829006    -0.80100
O1312       O  0.83367730  0.10745883  0.27044288    -0.77600
C1313       C  0.90112859  0.10488588  0.34841023     0.83400
O1314       O  0.92702422  0.18487798  0.21804840    -0.78700
O1315       O  0.96888265  0.11083040  0.26127784    -0.80200
O1316       O  0.85300245  0.03127579  0.22843356    -0.80000
O1317       O  0.82115956  0.07891815  0.21785487    -0.78600
Zn1318     Zn  0.88053383  0.12542031  0.27884595     1.55700
O1319       O  0.89532460  0.03724607  0.26141160    -0.80000
Cd1320     Cd  0.86293102  0.07610050  0.21212827     1.59700
Cd1321     Cd  0.92985749  0.14313645  0.21214950     1.59600
O1322       O  0.87662574  0.08286238  0.15631050    -0.80000
O1323       O  0.89826022  0.10777631  0.24450602    -1.90500
Cd1324     Cd  0.91930474  0.08683673  0.27276555     1.59900
O1325       O  0.92302263  0.12947678  0.15631711    -0.80000
O1326       O  0.91452630  0.09166209  0.33064827    -0.78600
C1327       C  0.91405008  0.19208598  0.24461319     0.83900
C1328       C  0.81391489  0.09189509  0.24438214     0.83600
O1329       O  0.88761024  0.11826149  0.33176752    -0.77600
C1330       C  0.86792256  0.01968019  0.24603052     0.85600
O1331       O  0.89848468  0.17229069  0.27062239    -0.77700
C1332       C  0.90074830  0.10525201  0.13929139     0.84500
C1333       C  0.98639761  0.13819234  0.24581966     0.84800
O1334       O  0.97473717  0.15307570  0.22827774    -0.80100
O1335       O  0.67404157  0.27750887  0.47618357    -0.77600
C1336       C  0.60653006  0.20732980  0.39815857     0.83400
O1337       O  0.58080243  0.26150304  0.02878065    -0.78700
O1338       O  0.53866181  0.14560393  0.48515212    -0.80200
O1339       O  0.65459989  0.18193470  0.01813754    -0.80000
O1340       O  0.68652461  0.26147066  0.02872638    -0.78600
Zn1341     Zn  0.62715420  0.24853154  0.46776261     1.55700
O1342       O  0.61226997  0.14546025  0.48519795    -0.80000
Cd1343     Cd  0.64472474  0.21684549  0.03441959     1.59700
Cd1344     Cd  0.57785597  0.21688216  0.03446728     1.59600
O1345       O  0.63105355  0.20991286  0.09023972    -0.80000
O1346       O  0.60940813  0.21311888  0.50204428    -1.90500
Cd1347     Cd  0.58829926  0.17107780  0.47377508     1.59900
O1348       O  0.58457848  0.20990633  0.09026798    -0.80000
O1349       O  0.59313741  0.18069207  0.41589862    -0.78600
C1350       C  0.59372120  0.28168136  0.50221495     0.83900
C1351       C  0.69379596  0.28171679  0.50224672     0.83600
O1352       O  0.62004552  0.23424776  0.41482226    -0.77600
C1353       C  0.63968002  0.15536175  0.50059045     0.84400
O1354       O  0.60920192  0.27744131  0.47610128    -0.77700
C1355       C  0.60689157  0.20805412  0.10727476     0.84500
C1356       C  0.52122594  0.15555885  0.50057547     0.84800
O1357       O  0.53296905  0.18210250  0.01818845    -0.80100
O1358       O  0.67406613  0.27749735  0.22616621    -0.77600
C1359       C  0.60653311  0.20732117  0.14815808     0.83400
O1360       O  0.58082589  0.26150029  0.27875761    -0.78700
O1361       O  0.53867892  0.14559870  0.23515919    -0.80200
O1362       O  0.65461711  0.18192744  0.26815528    -0.80000
O1363       O  0.68654407  0.26146464  0.27873032    -0.78600
Zn1364     Zn  0.62717682  0.24852879  0.21775504     1.55700
O1365       O  0.61229074  0.14546161  0.23520118    -0.80000
Cd1366     Cd  0.64474236  0.21684141  0.28442874     1.59700
Cd1367     Cd  0.57787566  0.21688048  0.28445212     1.59600
O1368       O  0.63106392  0.20991935  0.34024851    -0.80000
O1369       O  0.60942646  0.21311878  0.25204063    -1.90500
Cd1370     Cd  0.58831608  0.17107474  0.22377773     1.59900
O1371       O  0.58458791  0.20991097  0.34025748    -0.80000
O1372       O  0.59314405  0.18068413  0.16589976    -0.78600
C1373       C  0.59374970  0.28168734  0.25219879     0.83900
C1374       C  0.69381550  0.28171011  0.25223743     0.83600
O1375       O  0.62005465  0.23423983  0.16481948    -0.77600
C1376       C  0.63969888  0.15536293  0.25059818     0.84400
O1377       O  0.60923577  0.27744864  0.22609071    -0.77700
C1378       C  0.60689885  0.20806255  0.35727456     0.84500
C1379       C  0.52124244  0.15555906  0.25056913     0.84800
O1380       O  0.53298977  0.18210251  0.26816917    -0.80100
O1381       O  0.73592533  0.11817371  0.58169572    -0.77600
C1382       C  0.78333824  0.09189315  0.49434426     0.83400
O1383       O  0.76318961  0.18477787  0.96796107    -0.78700
O1384       O  0.71148575  0.08270987  0.90623422    -0.80200
O1385       O  0.64725425  0.03693636  0.51136371    -0.80000
O1386       O  0.68236326  0.09140598  0.58057962    -0.78600
Zn1387     Zn  0.75019618  0.12533709  0.52878099     1.55700
O1388       O  0.68373173  0.03118018  0.97841194    -0.80000
Cd1389     Cd  0.67275715  0.08656849  0.52268774     1.59700
Cd1390     Cd  0.71857968  0.14295985  0.96207862     1.59600
O1391       O  0.64716217  0.11055099  0.51121777    -0.80000
O1392       O  0.71480206  0.10762444  0.49444612    -1.90500
Cd1393     Cd  0.71851183  0.07603008  0.96204369     1.59900
O1394       O  0.68363673  0.15282844  0.97825682    -0.80000
O1395       O  0.76314479  0.07895361  0.96775892    -0.78600
C1396       C  0.78338921  0.19202337  0.49453606     0.83900
C1397       C  0.70900743  0.10471577  0.59834077     0.83600
O1398       O  0.77910048  0.10740461  0.52042076    -0.77600
C1399       C  0.65720111  0.01947395  0.99602748     0.84400
O1400       O  0.77914948  0.17222579  0.52053506    -0.77700
C1401       C  0.65706968  0.13794306  0.99580047     0.84500
C1402       C  0.70973413  0.10506901  0.88922013     0.84800
O1403       O  0.71170551  0.12928490  0.90624824    -0.80100
O1404       O  0.73591904  0.11815542  0.83170064    -0.77600
C1405       C  0.78335021  0.09188562  0.74435346     0.83400
O1406       O  0.76321923  0.18477279  0.71798486    -0.78700
O1407       O  0.71150803  0.08272044  0.65623222    -0.80200
O1408       O  0.64726734  0.03692998  0.76134508    -0.80000
O1409       O  0.68235703  0.09139351  0.83056641    -0.78600
Zn1410     Zn  0.75020420  0.12532121  0.77879232     1.55700
O1411       O  0.68376653  0.03117824  0.72840958    -0.80000
Cd1412     Cd  0.67276536  0.08655993  0.77267324     1.59700
Cd1413     Cd  0.71860787  0.14296276  0.71209494     1.59600
O1414       O  0.64717140  0.11054256  0.76120080    -0.80000
O1415       O  0.71481717  0.10761888  0.74444789    -1.90500
Cd1416     Cd  0.71853917  0.07603352  0.71203980     1.59900
O1417       O  0.68367127  0.15283683  0.72828532    -0.80000
O1418       O  0.76317499  0.07896640  0.71775591    -0.78600
C1419       C  0.78340963  0.19201054  0.74455752     0.83900
C1420       C  0.70899683  0.10470049  0.84833609     0.83600
O1421       O  0.77910417  0.10738253  0.77044031    -0.77600
C1422       C  0.65723230  0.01946824  0.74601865     0.84400
O1423       O  0.77916705  0.17221058  0.77055490    -0.77700
C1424       C  0.65709492  0.13794169  0.74580884     0.84500
C1425       C  0.70975461  0.10508194  0.63922547     0.84800
O1426       O  0.71172922  0.12929646  0.65626092    -0.80100
O1427       O  0.62017762  0.38607401  0.91515621    -0.77600
C1428       C  0.69387306  0.41245788  0.00255860     0.83400
O1429       O  0.58075296  0.31944211  0.52884581    -0.78700
O1430       O  0.63113727  0.42146397  0.59061431    -0.80200
O1431       O  0.61245375  0.46708724  0.98550858    -0.80000
O1432       O  0.59325480  0.41266600  0.91626737    -0.78600
Zn1433     Zn  0.62726170  0.37893111  0.96808180     1.55700
O1434       O  0.65477709  0.47305453  0.51850773    -0.80000
Cd1435     Cd  0.58847737  0.41749718  0.97415005     1.59700
Cd1436     Cd  0.57791998  0.36118511  0.53476238     1.59600
O1437       O  0.53889817  0.39350079  0.98562016    -0.80000
O1438       O  0.60951858  0.39655885  0.00242002    -1.90500
Cd1439     Cd  0.64484719  0.42822854  0.53480688     1.59900
O1440       O  0.53304300  0.35124798  0.51861322    -0.80000
O1441       O  0.68662327  0.42541392  0.52909776    -0.78600
C1442       C  0.59373774  0.31225323  0.00228852     0.83900
C1443       C  0.60665154  0.39943963  0.89850874     0.83600
O1444       O  0.67412008  0.39690756  0.97649302    -0.77600
C1445       C  0.63984935  0.48465288  0.00090421     0.84400
O1446       O  0.60932230  0.33206403  0.97629896    -0.77700
C1447       C  0.52138770  0.36613459  0.50106723     0.84500
C1448       C  0.60701600  0.39907071  0.60762962     0.84800
O1449       O  0.58474804  0.37484107  0.59060162    -0.80100
O1450       O  0.62018532  0.38607548  0.66514827    -0.77600
C1451       C  0.69389046  0.41244773  0.75254637     0.83400
O1452       O  0.58078371  0.31944608  0.77883318    -0.78700
O1453       O  0.63114655  0.42146115  0.84061151    -0.80200
O1454       O  0.61247751  0.46708301  0.73551950    -0.80000
O1455       O  0.59325893  0.41266391  0.66627983    -0.78600
Zn1456     Zn  0.62728127  0.37892908  0.71806642     1.55700
O1457       O  0.65480033  0.47304962  0.76849294    -0.80000
Cd1458     Cd  0.58849578  0.41749373  0.72416271     1.59700
Cd1459     Cd  0.57793835  0.36118010  0.78475390     1.59600
O1460       O  0.53891929  0.39349949  0.73564048    -0.80000
O1461       O  0.60954038  0.39655170  0.75241438    -1.90500
Cd1462     Cd  0.64486187  0.42822257  0.78480251     1.59900
O1463       O  0.53305907  0.35123169  0.76859592    -0.80000
O1464       O  0.68663223  0.42539942  0.77909034    -0.78600
C1465       C  0.59377066  0.31225278  0.75226869     0.83900
C1466       C  0.60665305  0.39943989  0.64851191     0.83600
O1467       O  0.67414051  0.39690693  0.72646635    -0.77600
C1468       C  0.63988125  0.48464708  0.75089730     0.84400
O1469       O  0.60934762  0.33206170  0.72627604    -0.77700
C1470       C  0.52140151  0.36612318  0.75106484     0.84500
C1471       C  0.60702324  0.39906766  0.85762500     0.84800
O1472       O  0.58475891  0.37483638  0.84059465    -0.80100
O1473       O  0.89855643  0.22689185  0.52076265    -0.77600
C1474       C  0.90124575  0.29700538  0.59869283     0.83400
O1475       O  0.82122742  0.24286315  0.96811817    -0.78700
O1476       O  0.89549326  0.35886701  0.51166377    -0.80200
O1477       O  0.97479278  0.32222812  0.97869517    -0.80000
O1478       O  0.92695953  0.24282874  0.96810006    -0.78600
Zn1479     Zn  0.88061083  0.25580685  0.52909001     1.55700
O1480       O  0.96910542  0.35872957  0.51170495    -0.80000
Cd1481     Cd  0.92990751  0.28745016  0.96239775     1.59700
Cd1482     Cd  0.86303275  0.28748993  0.96241760     1.59600
O1483       O  0.92319592  0.29442543  0.90659289    -0.80000
O1484       O  0.89835968  0.29121414  0.49480264    -1.90500
Cd1485     Cd  0.91946805  0.33325383  0.52307474     1.59900
O1486       O  0.87672180  0.29442316  0.90659929    -0.80000
O1487       O  0.91463768  0.32364303  0.58095283    -0.78600
C1488       C  0.81396704  0.22262615  0.49461884     0.83900
C1489       C  0.91404633  0.22265032  0.49466205     0.83600
O1490       O  0.88772525  0.27008860  0.58202809    -0.77600
C1491       C  0.98653626  0.34876878  0.99630154     0.84400
O1492       O  0.83372348  0.22684107  0.52068161    -0.77700
C1493       C  0.90088821  0.29627996  0.88957538     0.84500
C1494       C  0.86807148  0.34896071  0.99627637     0.84800
O1495       O  0.85315402  0.32240026  0.97870994    -0.80100
O1496       O  0.88774560  0.27009327  0.83203162    -0.77600
C1497       C  0.81398702  0.22261225  0.74464056     0.83400
O1498       O  0.92697375  0.24282303  0.71809061    -0.78700
O1499       O  0.87672044  0.29440970  0.65661133    -0.80200
O1500       O  0.89551250  0.35886641  0.76165299    -0.80000
O1501       O  0.91464838  0.32364767  0.83094818    -0.78600
Zn1502     Zn  0.88063515  0.25580374  0.77909889     1.55700
O1503       O  0.85316780  0.32238949  0.72873321    -0.80000
Cd1504     Cd  0.91948382  0.33325076  0.77306927     1.59700
Cd1505     Cd  0.92992320  0.28744542  0.71238885     1.59600
O1506       O  0.96912068  0.35872061  0.76170122    -0.80000
O1507       O  0.89837409  0.29120717  0.74480640    -1.90500
Cd1508     Cd  0.86304722  0.28748120  0.71243495     1.59900
O1509       O  0.97481194  0.32222081  0.72868456    -0.80000
O1510       O  0.82124758  0.24285528  0.71814656    -0.78600
C1511       C  0.91406758  0.22264974  0.74466661     0.83900
C1512       C  0.90125836  0.29701194  0.84869179     0.83600
O1513       O  0.83374815  0.22682645  0.77069707    -0.77600
C1514       C  0.86809296  0.34895736  0.74628341     0.84400
O1515       O  0.89859110  0.22689776  0.77077832    -0.77700
C1516       C  0.98655805  0.34875936  0.74629662     0.84500
C1517       C  0.90088431  0.29626998  0.63957728     0.84800
O1518       O  0.92319871  0.29442011  0.65658558    -0.80100
O1519       O  0.72868805  0.39698029  0.97649505    -0.77600
C1520       C  0.79877183  0.39961688  0.89858490     0.83400
O1521       O  0.74456299  0.31954749  0.52891956    -0.78700
O1522       O  0.86060175  0.39378507  0.98570477    -0.80200
O1523       O  0.82402525  0.47315246  0.51852685    -0.80000
O1524       O  0.74461515  0.42536836  0.52919414    -0.78600
Zn1525     Zn  0.75757473  0.37902766  0.96813697     1.55700
O1526       O  0.86050991  0.46739989  0.98556845    -0.80000
Cd1527     Cd  0.78925237  0.42829747  0.53489482     1.59700
Cd1528     Cd  0.78917615  0.36136024  0.53482382     1.59600
O1529       O  0.79629513  0.42161060  0.59069418    -0.80000
O1530       O  0.79296247  0.39671447  0.00247935    -1.90500
Cd1531     Cd  0.83500919  0.41776888  0.97424406     1.59900
O1532       O  0.79605924  0.37502677  0.59066341    -0.80000
O1533       O  0.82541290  0.41292316  0.91635167    -0.78600
C1534       C  0.72436332  0.31232847  0.00234709     0.83900
C1535       C  0.72444129  0.41247176  0.00259688     0.83600
O1536       O  0.77185159  0.38617657  0.91522452    -0.77600
C1537       C  0.85055194  0.48486290  0.00090752     0.84400
O1538       O  0.72860439  0.33214170  0.97636907    -0.77700
C1539       C  0.79804391  0.39924641  0.60769931     0.84500
C1540       C  0.85067581  0.36638084  0.00108352     0.84800
O1541       O  0.82411196  0.35148743  0.51861360    -0.80100
O1542       O  0.72869903  0.39695688  0.72648803    -0.77600
C1543       C  0.79879018  0.39961611  0.64858379     0.83400
O1544       O  0.74457784  0.31954445  0.77891782    -0.78700
O1545       O  0.86062055  0.39377878  0.73570143    -0.80200
O1546       O  0.82404042  0.47314957  0.76852114    -0.80000
O1547       O  0.74462899  0.42536997  0.77917381    -0.78600
Zn1548     Zn  0.75759397  0.37901267  0.71813396     1.55700
O1549       O  0.86053206  0.46739592  0.73557155    -0.80000
Cd1550     Cd  0.78926231  0.42829545  0.78488432     1.59700
Cd1551     Cd  0.78918816  0.36135869  0.78482836     1.59600
O1552       O  0.79628734  0.42160724  0.84068804    -0.80000
O1553       O  0.79298139  0.39670697  0.75247725    -1.90500
Cd1554     Cd  0.83502963  0.41776476  0.72424233     1.59900
O1555       O  0.79605526  0.37502527  0.84066920    -0.80000
O1556       O  0.82543265  0.41292540  0.66634821    -0.78600
C1557       C  0.72439012  0.31231486  0.75234249     0.83900
C1558       C  0.72445430  0.41245431  0.75257595     0.83600
O1559       O  0.77187141  0.38616841  0.66522553    -0.77600
C1560       C  0.85057206  0.48485869  0.75090712     0.84400
O1561       O  0.72863214  0.33212532  0.72635976    -0.77700
C1562       C  0.79803177  0.39924353  0.85770004     0.84500
C1563       C  0.85069896  0.36637938  0.75109107     0.84800
O1564       O  0.82412793  0.35148702  0.76862727    -0.80100
O1565       O  0.83366096  0.10745632  0.52043932    -0.77600
C1566       C  0.90111825  0.10488748  0.59840897     0.83400
O1567       O  0.92699665  0.18487748  0.96804917    -0.78700
O1568       O  0.96886553  0.11082864  0.51127426    -0.80200
O1569       O  0.85298184  0.03127916  0.97843129    -0.80000
O1570       O  0.82114241  0.07892429  0.96784016    -0.78600
Zn1571     Zn  0.88051752  0.12542038  0.52884580     1.55700
O1572       O  0.89530659  0.03724837  0.51140845    -0.80000
Cd1573     Cd  0.86291411  0.07610362  0.96212105     1.59700
Cd1574     Cd  0.92983794  0.14314022  0.96215399     1.59600
O1575       O  0.87662341  0.08286198  0.90630735    -0.80000
O1576       O  0.89824518  0.10777900  0.49450441    -1.90500
Cd1577     Cd  0.91928835  0.08683803  0.52276187     1.59900
O1578       O  0.92301845  0.12947821  0.90632280    -0.80000
O1579       O  0.91451390  0.09166375  0.58064337    -0.78600
C1580       C  0.91402975  0.19208669  0.49461095     0.83900
C1581       C  0.81390221  0.09189976  0.49437291     0.83600
O1582       O  0.88759754  0.11826285  0.58176990    -0.77600
C1583       C  0.86790212  0.01968377  0.99602817     0.84400
O1584       O  0.89846368  0.17229052  0.52061919    -0.77700
C1585       C  0.90075066  0.10525089  0.88929361     0.84500
C1586       C  0.98637725  0.13819925  0.99582581     0.84800
O1587       O  0.97471678  0.15308615  0.97829202    -0.80100
O1588       O  0.83367700  0.10745798  0.77044207    -0.77600
C1589       C  0.90112539  0.10488457  0.84841102     0.83400
O1590       O  0.92702423  0.18487810  0.71805012    -0.78700
O1591       O  0.96888215  0.11083059  0.76128085    -0.80200
O1592       O  0.85300327  0.03127605  0.72843205    -0.80000
O1593       O  0.82116015  0.07891824  0.71785335    -0.78600
Zn1594     Zn  0.88053307  0.12541988  0.77884591     1.55700
O1595       O  0.89532428  0.03724596  0.76141209    -0.80000
Cd1596     Cd  0.86293196  0.07610087  0.71212720     1.59700
Cd1597     Cd  0.92985789  0.14313692  0.71215114     1.59600
O1598       O  0.87662866  0.08286329  0.65631001    -0.80000
O1599       O  0.89826003  0.10777622  0.74450645    -1.90500
Cd1600     Cd  0.91930384  0.08683641  0.77276719     1.59900
O1601       O  0.92302489  0.12947826  0.65631844    -0.80000
O1602       O  0.91452345  0.09166071  0.83064994    -0.78600
C1603       C  0.91404949  0.19208575  0.74461474     0.83900
C1604       C  0.81391493  0.09189438  0.74438082     0.83600
O1605       O  0.88760795  0.11826069  0.83176745    -0.77600
C1606       C  0.86792283  0.01968022  0.74602978     0.85600
O1607       O  0.89848372  0.17229024  0.77062332    -0.77700
C1608       C  0.90075163  0.10525327  0.63929185     0.84500
C1609       C  0.98639724  0.13819267  0.74582279     0.84800
O1610       O  0.97473695  0.15307601  0.72828074    -0.80100
O1611       O  0.67403347  0.27751628  0.97618195    -0.77600
C1612       C  0.60652734  0.20733375  0.89815871     0.83400
O1613       O  0.58080547  0.26149669  0.52877822    -0.78700
O1614       O  0.53865778  0.14561046  0.98515153    -0.80200
O1615       O  0.65460153  0.18192758  0.51814344    -0.80000
O1616       O  0.68653037  0.26146421  0.52873027    -0.78600
Zn1617     Zn  0.62714691  0.24853707  0.96776114     1.55700
O1618       O  0.61226461  0.14546445  0.98519993    -0.80000
Cd1619     Cd  0.64472835  0.21683992  0.53442344     1.59700
Cd1620     Cd  0.57785959  0.21687629  0.53446666     1.59600
O1621       O  0.63105587  0.20990944  0.59024317    -0.80000
O1622       O  0.60940342  0.21312465  0.00204320    -1.90500
Cd1623     Cd  0.58829535  0.17108322  0.97377564     1.59900
O1624       O  0.58458008  0.20990142  0.59026812    -0.80000
O1625       O  0.59313591  0.18069643  0.91589940    -0.78600
C1626       C  0.59371562  0.28168688  0.00221453     0.83900
C1627       C  0.69378888  0.28172360  0.00224513     0.83600
O1628       O  0.62004001  0.23425218  0.91482145    -0.77600
C1629       C  0.63967634  0.15536707  0.00058815     0.84400
O1630       O  0.60919265  0.27744543  0.97609916    -0.77700
C1631       C  0.60689316  0.20805057  0.60727660     0.84500
C1632       C  0.52122177  0.15556488  0.00057563     0.84800
O1633       O  0.53297336  0.18209674  0.51818744    -0.80100
O1634       O  0.67406633  0.27749744  0.72616810    -0.77600
C1635       C  0.60653368  0.20731892  0.64815995     0.83400
O1636       O  0.58082583  0.26150103  0.77875664    -0.78700
O1637       O  0.53867830  0.14559800  0.73516362    -0.80200
O1638       O  0.65461674  0.18192695  0.76815668    -0.80000
O1639       O  0.68654408  0.26146448  0.77873220    -0.78600
Zn1640     Zn  0.62717713  0.24852848  0.71775565     1.55700
O1641       O  0.61229032  0.14546129  0.73520265    -0.80000
Cd1642     Cd  0.64474196  0.21684122  0.78443060     1.59700
Cd1643     Cd  0.57787552  0.21688171  0.78445154     1.59600
O1644       O  0.63106223  0.20992010  0.84025037    -0.80000
O1645       O  0.60942642  0.21311897  0.75204184    -1.90500
Cd1646     Cd  0.58831519  0.17107413  0.72378053     1.59900
O1647       O  0.58458734  0.20991413  0.84025663    -0.80000
O1648       O  0.59314253  0.18068234  0.66590254    -0.78600
C1649       C  0.59374963  0.28168765  0.75219732     0.83900
C1650       C  0.69381571  0.28170999  0.75223972     0.83600
O1651       O  0.62005646  0.23423807  0.66482042    -0.77600
C1652       C  0.63969869  0.15536264  0.75059899     0.84400
O1653       O  0.60923548  0.27744845  0.72608948    -0.77700
C1654       C  0.60689735  0.20806518  0.85727500     0.84500
C1655       C  0.52124207  0.15555926  0.75057198     0.84800
O1656       O  0.53298962  0.18210375  0.76816993    -0.80100
O1657       O  0.73591951  0.61817096  0.08169498    -0.77600
C1658       C  0.78332858  0.59188695  0.99434093     0.83400
O1659       O  0.76319715  0.68478093  0.46796382    -0.78700
O1660       O  0.71149160  0.58271220  0.40623593    -0.80200
O1661       O  0.64724435  0.53693876  0.01136427    -0.80000
O1662       O  0.68235753  0.59140696  0.08058148    -0.78600
Zn1663     Zn  0.75018849  0.62533449  0.02877936     1.55700
O1664       O  0.68374385  0.53118032  0.47841316    -0.80000
Cd1665     Cd  0.67274999  0.58657055  0.02268907     1.59700
Cd1666     Cd  0.71858738  0.64296201  0.46208189     1.59600
O1667       O  0.64715759  0.61055610  0.01121988    -0.80000
O1668       O  0.71479394  0.60762311  0.99444494    -1.90500
Cd1669     Cd  0.71852049  0.57603242  0.46204446     1.59900
O1670       O  0.68364325  0.65282774  0.47826186    -0.80000
O1671       O  0.76315461  0.57895998  0.46775804    -0.78600
C1672       C  0.78338129  0.69202035  0.99453458     0.83900
C1673       C  0.70900237  0.60471467  0.09834155     0.83600
O1674       O  0.77909275  0.60740224  0.02041851    -0.77600
C1675       C  0.65721289  0.51947249  0.49602812     0.84400
O1676       O  0.77914116  0.67222318  0.02053336    -0.77700
C1677       C  0.65707476  0.63793944  0.49580230     0.84500
C1678       C  0.70973899  0.60507129  0.38922295     0.84800
O1679       O  0.71171120  0.62928730  0.40625170    -0.80100
O1680       O  0.73592121  0.61815634  0.33170221    -0.77600
C1681       C  0.78335025  0.59188657  0.24435436     0.83400
O1682       O  0.76321935  0.68477279  0.21798626    -0.78700
O1683       O  0.71150508  0.58271975  0.15623326    -0.80200
O1684       O  0.64726863  0.53693130  0.26135176    -0.80000
O1685       O  0.68235929  0.59139680  0.33057088    -0.78600
Zn1686     Zn  0.75020465  0.62532220  0.27879378     1.55700
O1687       O  0.68376647  0.53117928  0.22841356    -0.80000
Cd1688     Cd  0.67276631  0.58656165  0.27267771     1.59700
Cd1689     Cd  0.71860790  0.64296290  0.21209629     1.59600
O1690       O  0.64717186  0.61054348  0.26120339    -0.80000
O1691       O  0.71481701  0.60761941  0.24445014    -1.90500
Cd1692     Cd  0.71853850  0.57603411  0.21204144     1.59900
O1693       O  0.68367143  0.65283675  0.22828607    -0.80000
O1694       O  0.76317480  0.57896722  0.21775729    -0.78600
C1695       C  0.78340963  0.69201083  0.24455975     0.83900
C1696       C  0.70899974  0.60470272  0.34833911     0.83600
O1697       O  0.77910467  0.60738407  0.27044114    -0.77600
C1698       C  0.65723300  0.51946942  0.24602449     0.84400
O1699       O  0.77916680  0.67221137  0.27055715    -0.77700
C1700       C  0.65709508  0.63794191  0.24580970     0.84500
C1701       C  0.70975134  0.60508116  0.13922658     0.84800
O1702       O  0.71172742  0.62929622  0.15626228    -0.80100
O1703       O  0.62018088  0.88606885  0.41515518    -0.77600
C1704       C  0.69387829  0.91245241  0.50256221     0.83400
O1705       O  0.58074758  0.81944725  0.02884744    -0.78700
O1706       O  0.63113315  0.92146851  0.09061683    -0.80200
O1707       O  0.61246441  0.96708589  0.48551057    -0.80000
O1708       O  0.59326177  0.91266464  0.41626982    -0.78600
Zn1709     Zn  0.62726659  0.87892538  0.46807994     1.55700
O1710       O  0.65476545  0.97305757  0.01850968    -0.80000
Cd1711     Cd  0.58848606  0.91749567  0.47415201     1.59700
Cd1712     Cd  0.57791430  0.86119009  0.03476531     1.59600
O1713       O  0.53890729  0.89350159  0.48562283    -0.80000
O1714       O  0.60952516  0.89655428  0.50241872    -1.90500
Cd1715     Cd  0.64484052  0.92823364  0.03480832     1.59900
O1716       O  0.53303636  0.85125146  0.01861778    -0.80000
O1717       O  0.68661907  0.92542330  0.02909882    -0.78600
C1718       C  0.59374389  0.81224802  0.50228600     0.83900
C1719       C  0.60665585  0.89943649  0.39850969     0.83600
O1720       O  0.67412437  0.89690100  0.47648969    -0.77600
C1721       C  0.63986108  0.98465097  0.50090394     0.84400
O1722       O  0.60932741  0.83205807  0.47629718    -0.77700
C1723       C  0.52137967  0.86613525  0.00106834     0.84500
C1724       C  0.60701290  0.89907456  0.10763281     0.84800
O1725       O  0.58474428  0.87484529  0.09060497    -0.80100
O1726       O  0.62018354  0.88607715  0.16514984    -0.77600
C1727       C  0.69389132  0.91244832  0.25254772     0.83400
O1728       O  0.58078342  0.81944559  0.27883433    -0.78700
O1729       O  0.63114916  0.92145961  0.34061300    -0.80200
O1730       O  0.61247765  0.96708433  0.23552699    -0.80000
O1731       O  0.59325936  0.91266783  0.16628503    -0.78600
Zn1732     Zn  0.62728140  0.87892972  0.21806770     1.55700
O1733       O  0.65480192  0.97305054  0.26849693    -0.80000
Cd1734     Cd  0.58849631  0.91749545  0.22416813     1.59700
Cd1735     Cd  0.57793867  0.86117975  0.28475535     1.59600
O1736       O  0.53891953  0.89350053  0.23564467    -0.80000
O1737       O  0.60954109  0.89655223  0.25241673    -1.90500
Cd1738     Cd  0.64486338  0.92822285  0.28480437     1.59900
O1739       O  0.53305901  0.85123146  0.26859761    -0.80000
O1740       O  0.68663341  0.92539972  0.27909157    -0.78600
C1741       C  0.59377100  0.81225272  0.25226986     0.83900
C1742       C  0.60665168  0.89944295  0.14851529     0.83600
O1743       O  0.67414107  0.89690776  0.22646714    -0.77600
C1744       C  0.63988211  0.98464827  0.25090326     0.84400
O1745       O  0.60934795  0.83206186  0.22627764    -0.77700
C1746       C  0.52140156  0.86612343  0.25106712     0.84500
C1747       C  0.60702629  0.89906564  0.35762635     0.84800
O1748       O  0.58476117  0.87483499  0.34059605    -0.80100
O1749       O  0.89854428  0.72688708  0.02076346    -0.77600
C1750       C  0.90124068  0.79700303  0.09869287     0.83400
O1751       O  0.82123429  0.74286725  0.46812095    -0.78700
O1752       O  0.89548248  0.85886192  0.01166509    -0.80200
O1753       O  0.97480015  0.82223095  0.47869052    -0.80000
O1754       O  0.92696798  0.74283174  0.46809673    -0.78600
Zn1755     Zn  0.88060081  0.75580373  0.02909104     1.55700
O1756       O  0.96909618  0.85872847  0.01170304    -0.80000
Cd1757     Cd  0.92991461  0.78745297  0.46239451     1.59700
Cd1758     Cd  0.86304034  0.78749329  0.46241867     1.59600
O1759       O  0.92320039  0.79442715  0.40659010    -0.80000
O1760       O  0.89835106  0.79121074  0.99480344    -1.90500
Cd1761     Cd  0.91945923  0.83325054  0.02307451     1.59900
O1762       O  0.87672679  0.79442590  0.40659975    -0.80000
O1763       O  0.91463247  0.82364036  0.08095236    -0.78600
C1764       C  0.81395850  0.72262342  0.99461711     0.83900
C1765       C  0.91403550  0.72264625  0.99466450     0.83600
O1766       O  0.88771757  0.77008593  0.08202880    -0.77600
C1767       C  0.98654446  0.84877014  0.49630007     0.84400
O1768       O  0.83371329  0.72683932  0.02068319    -0.77700
C1769       C  0.90089215  0.79628187  0.38957420     0.84500
C1770       C  0.86808183  0.84896534  0.49627625     0.84800
O1771       O  0.85316352  0.82240430  0.47871124    -0.80100
O1772       O  0.88774879  0.77009432  0.33203101    -0.77600
C1773       C  0.81398683  0.72261257  0.24464182     0.83400
O1774       O  0.92697443  0.74282355  0.21808926    -0.78700
O1775       O  0.87671759  0.79440721  0.15661219    -0.80200
O1776       O  0.89551260  0.85886727  0.26164957    -0.80000
O1777       O  0.91464783  0.82364869  0.33094648    -0.78600
Zn1778     Zn  0.88063583  0.75580399  0.27909856     1.55700
O1779       O  0.85316699  0.82238883  0.22873226    -0.80000
Cd1780     Cd  0.91948341  0.83325127  0.27306764     1.59700
Cd1781     Cd  0.92992349  0.78744606  0.21238758     1.59600
O1782       O  0.96912059  0.85872084  0.26170147    -0.80000
O1783       O  0.89837416  0.79120714  0.24480558    -1.90500
Cd1784     Cd  0.86304635  0.78748038  0.21243555     1.59900
O1785       O  0.97481234  0.82222158  0.22868428    -0.80000
O1786       O  0.82124719  0.74285507  0.21814799    -0.78600
C1787       C  0.91406808  0.72264994  0.24466501     0.83900
C1788       C  0.90126031  0.79701326  0.34869062     0.83600
O1789       O  0.83374828  0.72682694  0.27069871    -0.77600
C1790       C  0.86809269  0.84895750  0.24628080     0.84400
O1791       O  0.89859129  0.72689763  0.27077663    -0.77700
C1792       C  0.98655820  0.84875972  0.24629730     0.84500
C1793       C  0.90088141  0.79626847  0.13957715     0.84800
O1794       O  0.92319734  0.79442039  0.15658431    -0.80100
O1795       O  0.72869131  0.89697145  0.47649591    -0.77600
C1796       C  0.79877499  0.89961384  0.39858429     0.83400
O1797       O  0.74455502  0.81955306  0.02891802    -0.78700
O1798       O  0.86060888  0.89378732  0.48570256    -0.80200
O1799       O  0.82402309  0.97315458  0.01852747    -0.80000
O1800       O  0.74461085  0.92537465  0.02919495    -0.78600
Zn1801     Zn  0.75757968  0.87902049  0.46813759     1.55700
O1802       O  0.86051283  0.96739975  0.48556719    -0.80000
Cd1803     Cd  0.78924796  0.92830108  0.03489561     1.59700
Cd1804     Cd  0.78916917  0.86136258  0.03482242     1.59600
O1805       O  0.79629163  0.92161334  0.09069451    -0.80000
O1806       O  0.79296779  0.89671106  0.50247941    -1.90500
Cd1807     Cd  0.83501392  0.91776865  0.47424261     1.59900
O1808       O  0.79605465  0.87502895  0.09066182    -0.80000
O1809       O  0.82541645  0.91292348  0.41635027    -0.78600
C1810       C  0.72437130  0.81232138  0.50234988     0.83900
C1811       C  0.72444343  0.91246077  0.50259121     0.83600
O1812       O  0.77185522  0.88616963  0.41522483    -0.77600
C1813       C  0.85055414  0.98486196  0.50090673     0.84400
O1814       O  0.72861141  0.83213451  0.47637049    -0.77700
C1815       C  0.79804071  0.89924882  0.10769857     0.84500
C1816       C  0.85068547  0.86638449  0.50108395     0.84800
O1817       O  0.82410111  0.85148428  0.01861101    -0.80100
O1818       O  0.72869944  0.89695732  0.22648883    -0.77600
C1819       C  0.79878829  0.89961793  0.14858308     0.83400
O1820       O  0.74457792  0.81954410  0.27891557    -0.78700
O1821       O  0.86062024  0.89377884  0.23569848    -0.80200
O1822       O  0.82404089  0.97314931  0.26852283    -0.80000
O1823       O  0.74462942  0.92536951  0.27917533    -0.78600
Zn1824     Zn  0.75759372  0.87901296  0.21813390     1.55700
O1825       O  0.86053179  0.96739606  0.23557111    -0.80000
Cd1826     Cd  0.78926290  0.92829485  0.28488546     1.59700
Cd1827     Cd  0.78918812  0.86135806  0.28482617     1.59600
O1828       O  0.79628926  0.92160570  0.34068871    -0.80000
O1829       O  0.79298154  0.89670719  0.25247657    -1.90500
Cd1830     Cd  0.83502920  0.91776513  0.22424078     1.59900
O1831       O  0.79605610  0.87502322  0.34066729    -0.80000
O1832       O  0.82543115  0.91292716  0.16634678    -0.78600
C1833       C  0.72439009  0.81231478  0.25234103     0.83900
C1834       C  0.72445473  0.91245420  0.25257667     0.83600
O1835       O  0.77186994  0.88616958  0.16522560    -0.77600
C1836       C  0.85057219  0.98485865  0.25090788     0.84400
O1837       O  0.72863183  0.83212569  0.22635847    -0.77700
C1838       C  0.79803381  0.89924148  0.35769937     0.84500
C1839       C  0.85069856  0.86637926  0.25108784     0.84800
O1840       O  0.82412755  0.85148673  0.26862391    -0.80100
O1841       O  0.83365148  0.60745069  0.02043913    -0.77600
C1842       C  0.90111343  0.60488576  0.09840859     0.83400
O1843       O  0.92700736  0.68488049  0.46804803    -0.78700
O1844       O  0.96886218  0.61083221  0.01127274    -0.80200
O1845       O  0.85298478  0.53127928  0.47843095    -0.80000
O1846       O  0.82115003  0.57892852  0.46784130    -0.78600
Zn1847     Zn  0.88050865  0.62541621  0.02884650     1.55700
O1848       O  0.89530470  0.53724943  0.01140757    -0.80000
Cd1849     Cd  0.86291996  0.57610522  0.46212137     1.59700
Cd1850     Cd  0.92984522  0.64314081  0.46215294     1.59600
O1851       O  0.87662813  0.58286360  0.40630731    -0.80000
O1852       O  0.89823872  0.60777765  0.99450464    -1.90500
Cd1853     Cd  0.91928494  0.58683908  0.02276077     1.59900
O1854       O  0.92302391  0.62947911  0.40632148    -0.80000
O1855       O  0.91451155  0.59166487  0.08064231    -0.78600
C1856       C  0.91401924  0.69208300  0.99461226     0.83900
C1857       C  0.81389409  0.59189607  0.99437496     0.83600
O1858       O  0.88758937  0.61825817  0.08177030    -0.77600
C1859       C  0.86790411  0.51968313  0.49602834     0.84400
O1860       O  0.89845356  0.67228645  0.02062093    -0.77700
C1861       C  0.90075506  0.60525219  0.38929283     0.84500
C1862       C  0.98638165  0.63819440  0.49582514     0.84800
O1863       O  0.97472267  0.65308209  0.47828999    -0.80100
O1864       O  0.83367736  0.60745883  0.27044285    -0.77600
C1865       C  0.90112855  0.60488580  0.34841023     0.83400
O1866       O  0.92702423  0.68487792  0.21804837    -0.78700
O1867       O  0.96888260  0.61083039  0.26127787    -0.80200
O1868       O  0.85300248  0.53127579  0.22843357    -0.80000
O1869       O  0.82115947  0.57891812  0.21785483    -0.78600
Zn1870     Zn  0.88053387  0.62542033  0.27884594     1.55700
O1871       O  0.89532465  0.53724611  0.26141159    -0.80000
Cd1872     Cd  0.86293095  0.57610047  0.21212825     1.59700
Cd1873     Cd  0.92985752  0.64313645  0.21214949     1.59600
O1874       O  0.87662574  0.58286236  0.15631049    -0.80000
O1875       O  0.89826013  0.60777630  0.24450592    -1.90500
Cd1876     Cd  0.91930469  0.58683673  0.27276555     1.59900
O1877       O  0.92302264  0.62947682  0.15631711    -0.80000
O1878       O  0.91452627  0.59166202  0.33064830    -0.78600
C1879       C  0.91404997  0.69208589  0.24461330     0.83900
C1880       C  0.81391492  0.59189511  0.24438220     0.83600
O1881       O  0.88761029  0.61826155  0.33176752    -0.77600
C1882       C  0.86792263  0.51968020  0.24603049     0.85600
O1883       O  0.89848473  0.67229073  0.27062244    -0.77700
C1884       C  0.90074834  0.60525201  0.13929140     0.84500
C1885       C  0.98639759  0.63819235  0.24581961     0.84800
O1886       O  0.97473717  0.65307566  0.22827765    -0.80100
O1887       O  0.67404159  0.77750887  0.47618361    -0.77600
C1888       C  0.60653003  0.70732979  0.39815857     0.83400
O1889       O  0.58080241  0.76150307  0.02878072    -0.78700
O1890       O  0.53866182  0.64560387  0.48515214    -0.80200
O1891       O  0.65459989  0.68193471  0.01813751    -0.80000
O1892       O  0.68652463  0.76147062  0.02872640    -0.78600
Zn1893     Zn  0.62715426  0.74853155  0.46776259     1.55700
O1894       O  0.61227004  0.64546025  0.48519792    -0.80000
Cd1895     Cd  0.64472477  0.71684547  0.03441957     1.59700
Cd1896     Cd  0.57785592  0.71688217  0.03446730     1.59600
O1897       O  0.63105358  0.70991286  0.09023970    -0.80000
O1898       O  0.60940811  0.71311888  0.50204421    -1.90500
Cd1899     Cd  0.58829931  0.67107778  0.47377507     1.59900
O1900       O  0.58457844  0.70990631  0.09026800    -0.80000
O1901       O  0.59313739  0.68069205  0.41589862    -0.78600
C1902       C  0.59372123  0.78168131  0.50221501     0.83900
C1903       C  0.69379594  0.78171672  0.50224663     0.83600
O1904       O  0.62004564  0.73424775  0.41482227    -0.77600
C1905       C  0.63968004  0.65536173  0.50059042     0.84400
O1906       O  0.60920191  0.77744120  0.47610116    -0.77700
C1907       C  0.60689157  0.70805412  0.10727475     0.84500
C1908       C  0.52122596  0.65555886  0.50057542     0.84800
O1909       O  0.53296896  0.68210247  0.01818844    -0.80100
O1910       O  0.67406617  0.77749738  0.22616625    -0.77600
C1911       C  0.60653315  0.70732117  0.14815806     0.83400
O1912       O  0.58082584  0.76150028  0.27875764    -0.78700
O1913       O  0.53867894  0.64559869  0.23515922    -0.80200
O1914       O  0.65461704  0.68192745  0.26815534    -0.80000
O1915       O  0.68654403  0.76146456  0.27873029    -0.78600
Zn1916     Zn  0.62717685  0.74852879  0.21775506     1.55700
O1917       O  0.61229076  0.64546159  0.23520123    -0.80000
Cd1918     Cd  0.64474229  0.71684140  0.28442873     1.59700
Cd1919     Cd  0.57787559  0.71688047  0.28445213     1.59600
O1920       O  0.63106384  0.70991935  0.34024851    -0.80000
O1921       O  0.60942631  0.71311877  0.25204063    -1.90500
Cd1922     Cd  0.58831611  0.67107474  0.22377774     1.59900
O1923       O  0.58458788  0.70991096  0.34025746    -0.80000
O1924       O  0.59314411  0.68068412  0.16589975    -0.78600
C1925       C  0.59374958  0.78168728  0.25219880     0.83900
C1926       C  0.69381548  0.78171011  0.25223745     0.83600
O1927       O  0.62005472  0.73423982  0.16481947    -0.77600
C1928       C  0.63969897  0.65536300  0.25059816     0.84400
O1929       O  0.60923577  0.77744860  0.22609078    -0.77700
C1930       C  0.60689877  0.70806254  0.35727456     0.84500
C1931       C  0.52124246  0.65555899  0.25056913     0.84800
O1932       O  0.53298978  0.68210248  0.26816917    -0.80100
O1933       O  0.73592536  0.61817383  0.58169573    -0.77600
C1934       C  0.78333835  0.59189325  0.49434432     0.83400
O1935       O  0.76318971  0.68477794  0.96796103    -0.78700
O1936       O  0.71148567  0.58270981  0.90623421    -0.80200
O1937       O  0.64725425  0.53693634  0.51136375    -0.80000
O1938       O  0.68236328  0.59140592  0.58057963    -0.78600
Zn1939     Zn  0.75019622  0.62533713  0.52878102     1.55700
O1940       O  0.68373176  0.53118021  0.97841188    -0.80000
Cd1941     Cd  0.67275720  0.58656847  0.52268773     1.59700
Cd1942     Cd  0.71857977  0.64295997  0.96207861     1.59600
O1943       O  0.64716227  0.61055098  0.51121776    -0.80000
O1944       O  0.71480212  0.60762443  0.49444612    -1.90500
Cd1945     Cd  0.71851176  0.57603009  0.96204368     1.59900
O1946       O  0.68363674  0.65282848  0.97825680    -0.80000
O1947       O  0.76314471  0.57895365  0.96775887    -0.78600
C1948       C  0.78338921  0.69202331  0.49453606     0.83900
C1949       C  0.70900749  0.60471584  0.59834078     0.83600
O1950       O  0.77910056  0.60740455  0.52042083    -0.77600
C1951       C  0.65720119  0.51947393  0.99602753     0.84400
O1952       O  0.77914951  0.67222580  0.52053507    -0.77700
C1953       C  0.65706970  0.63794310  0.99580042     0.84500
C1954       C  0.70973417  0.60506901  0.88922014     0.84800
O1955       O  0.71170556  0.62928493  0.90624827    -0.80100
O1956       O  0.73591895  0.61815540  0.83170061    -0.77600
C1957       C  0.78335025  0.59188563  0.74435347     0.83400
O1958       O  0.76321927  0.68477291  0.71798491    -0.78700
O1959       O  0.71150795  0.58272039  0.65623221    -0.80200
O1960       O  0.64726743  0.53693001  0.76134507    -0.80000
O1961       O  0.68235695  0.59139343  0.83056645    -0.78600
Zn1962     Zn  0.75020419  0.62532123  0.77879231     1.55700
O1963       O  0.68376660  0.53117823  0.72840960    -0.80000
Cd1964     Cd  0.67276542  0.58655993  0.77267324     1.59700
Cd1965     Cd  0.71860793  0.64296279  0.71209495     1.59600
O1966       O  0.64717149  0.61054256  0.76120085    -0.80000
O1967       O  0.71481717  0.60761885  0.74444785    -1.90500
Cd1968     Cd  0.71853923  0.57603350  0.71203978     1.59900
O1969       O  0.68367129  0.65283684  0.72828526    -0.80000
O1970       O  0.76317503  0.57896641  0.71775586    -0.78600
C1971       C  0.78340969  0.69201051  0.74455760     0.83900
C1972       C  0.70899674  0.60470048  0.84833610     0.83600
O1973       O  0.77910421  0.60738252  0.77044030    -0.77600
C1974       C  0.65723239  0.51946825  0.74601861     0.84400
O1975       O  0.77916698  0.67221055  0.77055490    -0.77700
C1976       C  0.65709489  0.63794163  0.74580881     0.84500
C1977       C  0.70975466  0.60508198  0.63922548     0.84800
O1978       O  0.71172931  0.62929652  0.65626095    -0.80100
O1979       O  0.62017761  0.88607412  0.91515618    -0.77600
C1980       C  0.69387300  0.91245786  0.00255859     0.83400
O1981       O  0.58075295  0.81944205  0.52884582    -0.78700
O1982       O  0.63113722  0.92146402  0.59061433    -0.80200
O1983       O  0.61245365  0.96708723  0.98550852    -0.80000
O1984       O  0.59325464  0.91266595  0.91626739    -0.78600
Zn1985     Zn  0.62726166  0.87893113  0.96808180     1.55700
O1986       O  0.65477710  0.97305450  0.51850775    -0.80000
Cd1987     Cd  0.58847729  0.91749718  0.97415004     1.59700
Cd1988     Cd  0.57792002  0.86118511  0.53476238     1.59600
O1989       O  0.53889801  0.89350072  0.98562013    -0.80000
O1990       O  0.60951835  0.89655884  0.00242001    -1.90500
Cd1991     Cd  0.64484713  0.92822854  0.53480688     1.59900
O1992       O  0.53304305  0.85124799  0.51861321    -0.80000
O1993       O  0.68662317  0.92541391  0.52909780    -0.78600
C1994       C  0.59373762  0.81225320  0.00228863     0.83900
C1995       C  0.60665148  0.89943972  0.89850873     0.83600
O1996       O  0.67412008  0.89690755  0.97649305    -0.77600
C1997       C  0.63984924  0.98465289  0.00090422     0.84400
O1998       O  0.60932228  0.83206409  0.97629897    -0.77700
C1999       C  0.52138779  0.86613467  0.50106719     0.84500
C2000       C  0.60701595  0.89907070  0.60762962     0.84800
O2001       O  0.58474808  0.87484099  0.59060163    -0.80100
O2002       O  0.62018531  0.88607553  0.66514827    -0.77600
C2003       C  0.69389050  0.91244772  0.75254638     0.83400
O2004       O  0.58078370  0.81944607  0.77883320    -0.78700
O2005       O  0.63114656  0.92146113  0.84061145    -0.80200
O2006       O  0.61247746  0.96708302  0.73551947    -0.80000
O2007       O  0.59325888  0.91266387  0.66627985    -0.78600
Zn2008     Zn  0.62728125  0.87892909  0.71806642     1.55700
O2009       O  0.65480031  0.97304962  0.76849298    -0.80000
Cd2010     Cd  0.58849570  0.91749372  0.72416268     1.59700
Cd2011     Cd  0.57793829  0.86118010  0.78475392     1.59600
O2012       O  0.53891916  0.89349952  0.73564043    -0.80000
O2013       O  0.60954025  0.89655174  0.75241441    -1.90500
Cd2014     Cd  0.64486192  0.92822256  0.78480250     1.59900
O2015       O  0.53305887  0.85123161  0.76859589    -0.80000
O2016       O  0.68663238  0.92539942  0.77909035    -0.78600
C2017       C  0.59377088  0.81225291  0.75226854     0.83900
C2018       C  0.60665299  0.89943989  0.64851191     0.83600
O2019       O  0.67414045  0.89690690  0.72646637    -0.77600
C2020       C  0.63988124  0.98464708  0.75089732     0.84400
O2021       O  0.60934757  0.83206171  0.72627599    -0.77700
C2022       C  0.52140137  0.86612320  0.75106487     0.84500
C2023       C  0.60702321  0.89906771  0.85762498     0.84800
O2024       O  0.58475885  0.87483641  0.84059468    -0.80100
O2025       O  0.89855641  0.72689194  0.52076269    -0.77600
C2026       C  0.90124579  0.79700545  0.59869285     0.83400
O2027       O  0.82122740  0.74286320  0.96811820    -0.78700
O2028       O  0.89549333  0.85886698  0.51166377    -0.80200
O2029       O  0.97479273  0.82222812  0.97869513    -0.80000
O2030       O  0.92695942  0.74282867  0.96810006    -0.78600
Zn2031     Zn  0.88061084  0.75580687  0.52909001     1.55700
O2032       O  0.96910548  0.85872955  0.51170496    -0.80000
Cd2033     Cd  0.92990742  0.78745014  0.96239777     1.59700
Cd2034     Cd  0.86303266  0.78748993  0.96241758     1.59600
O2035       O  0.92319589  0.79442536  0.90659289    -0.80000
O2036       O  0.89835985  0.79121413  0.49480264    -1.90500
Cd2037     Cd  0.91946808  0.83325381  0.52307475     1.59900
O2038       O  0.87672179  0.79442323  0.90659928    -0.80000
O2039       O  0.91463765  0.82364305  0.58095285    -0.78600
C2040       C  0.81396703  0.72262614  0.49461880     0.83900
C2041       C  0.91404637  0.72265038  0.49466196     0.83600
O2042       O  0.88772529  0.77008869  0.58202807    -0.77600
C2043       C  0.98653614  0.84876873  0.99630153     0.84400
O2044       O  0.83372344  0.72684103  0.52068166    -0.77700
C2045       C  0.90088824  0.79628002  0.88957539     0.84500
C2046       C  0.86807146  0.84896072  0.99627637     0.84800
O2047       O  0.85315397  0.82240029  0.97870994    -0.80100
O2048       O  0.88774571  0.77009329  0.83203166    -0.77600
C2049       C  0.81398702  0.72261226  0.74464049     0.83400
O2050       O  0.92697385  0.74282309  0.71809060    -0.78700
O2051       O  0.87672037  0.79440971  0.65661133    -0.80200
O2052       O  0.89551250  0.85886647  0.76165297    -0.80000
O2053       O  0.91464827  0.82364768  0.83094815    -0.78600
Zn2054     Zn  0.88063519  0.75580373  0.77909887     1.55700
O2055       O  0.85316778  0.82238953  0.72873324    -0.80000
Cd2056     Cd  0.91948377  0.83325075  0.77306925     1.59700
Cd2057     Cd  0.92992326  0.78744542  0.71238885     1.59600
O2058       O  0.96912063  0.85872060  0.76170128    -0.80000
O2059       O  0.89837414  0.79120715  0.74480633    -1.90500
Cd2060     Cd  0.86304716  0.78748119  0.71243495     1.59900
O2061       O  0.97481203  0.82222086  0.72868460    -0.80000
O2062       O  0.82124743  0.74285523  0.71814664    -0.78600
C2063       C  0.91406748  0.72264966  0.74466683     0.83900
C2064       C  0.90125833  0.79701197  0.84869180     0.83600
O2065       O  0.83374824  0.72682653  0.77069709    -0.77600
C2066       C  0.86809293  0.84895739  0.74628344     0.84400
O2067       O  0.89859112  0.72689769  0.77077822    -0.77700
C2068       C  0.98655802  0.84875942  0.74629662     0.84500
C2069       C  0.90088427  0.79627001  0.63957730     0.84800
O2070       O  0.92319871  0.79442010  0.65658558    -0.80100
O2071       O  0.72868793  0.89698025  0.97649502    -0.77600
C2072       C  0.79877183  0.89961687  0.89858492     0.83400
O2073       O  0.74456299  0.81954751  0.52891964    -0.78700
O2074       O  0.86060177  0.89378506  0.98570475    -0.80200
O2075       O  0.82402530  0.97315252  0.51852692    -0.80000
O2076       O  0.74461520  0.92536841  0.52919406    -0.78600
Zn2077     Zn  0.75757469  0.87902767  0.96813698     1.55700
O2078       O  0.86050997  0.96739990  0.98556845    -0.80000
Cd2079     Cd  0.78925240  0.92829747  0.53489482     1.59700
Cd2080     Cd  0.78917609  0.86136024  0.53482384     1.59600
O2081       O  0.79629516  0.92161060  0.59069418    -0.80000
O2082       O  0.79296241  0.89671447  0.00247935    -1.90500
Cd2083     Cd  0.83500923  0.91776887  0.97424406     1.59900
O2084       O  0.79605920  0.87502674  0.59066342    -0.80000
O2085       O  0.82541286  0.91292310  0.91635171    -0.78600
C2086       C  0.72436342  0.81232844  0.00234715     0.83900
C2087       C  0.72444123  0.91247178  0.00259692     0.83600
O2088       O  0.77185159  0.88617664  0.91522453    -0.77600
C2089       C  0.85055201  0.98486289  0.00090756     0.84400
O2090       O  0.72860433  0.83214171  0.97636908    -0.77700
C2091       C  0.79804394  0.89924641  0.60769931     0.84500
C2092       C  0.85067585  0.86638087  0.00108350     0.84800
O2093       O  0.82411185  0.85148744  0.51861361    -0.80100
O2094       O  0.72869907  0.89695690  0.72648804    -0.77600
C2095       C  0.79879027  0.89961610  0.64858379     0.83400
O2096       O  0.74457775  0.81954439  0.77891776    -0.78700
O2097       O  0.86062060  0.89377879  0.73570141    -0.80200
O2098       O  0.82404050  0.97314952  0.76852119    -0.80000
O2099       O  0.74462903  0.92536999  0.77917381    -0.78600
Zn2100     Zn  0.75759400  0.87901267  0.71813396     1.55700
O2101       O  0.86053216  0.96739591  0.73557157    -0.80000
Cd2102     Cd  0.78926236  0.92829544  0.78488431     1.59700
Cd2103     Cd  0.78918811  0.86135868  0.78482836     1.59600
O2104       O  0.79628726  0.92160718  0.84068807    -0.80000
O2105       O  0.79298155  0.89670698  0.75247722    -1.90500
Cd2106     Cd  0.83502970  0.91776475  0.72424234     1.59900
O2107       O  0.79605522  0.87502527  0.84066919    -0.80000
O2108       O  0.82543274  0.91292545  0.66634824    -0.78600
C2109       C  0.72439016  0.81231483  0.75234270     0.83900
C2110       C  0.72445432  0.91245428  0.75257589     0.83600
O2111       O  0.77187143  0.88616836  0.66522548    -0.77600
C2112       C  0.85057213  0.98485866  0.75090709     0.84400
O2113       O  0.72863220  0.83212544  0.72635977    -0.77700
C2114       C  0.79803177  0.89924352  0.85770005     0.84500
C2115       C  0.85069895  0.86637941  0.75109109     0.84800
O2116       O  0.82412790  0.85148708  0.76862728    -0.80100
O2117       O  0.83366103  0.60745635  0.52043939    -0.77600
C2118       C  0.90111829  0.60488747  0.59840897     0.83400
O2119       O  0.92699665  0.68487744  0.96804911    -0.78700
O2120       O  0.96886562  0.61082864  0.51127426    -0.80200
O2121       O  0.85298168  0.53127912  0.97843129    -0.80000
O2122       O  0.82114228  0.57892432  0.96784010    -0.78600
Zn2123     Zn  0.88051753  0.62542038  0.52884580     1.55700
O2124       O  0.89530659  0.53724837  0.51140847    -0.80000
Cd2125     Cd  0.86291400  0.57610362  0.96212105     1.59700
Cd2126     Cd  0.92983798  0.64314021  0.96215398     1.59600
O2127       O  0.87662344  0.58286204  0.90630736    -0.80000
O2128       O  0.89824531  0.60777897  0.49450444    -1.90500
Cd2129     Cd  0.91928839  0.58683800  0.52276187     1.59900
O2130       O  0.92301862  0.62947824  0.90632280    -0.80000
O2131       O  0.91451392  0.59166370  0.58064338    -0.78600
C2132       C  0.91402962  0.69208664  0.49461105     0.83900
C2133       C  0.81390225  0.59189976  0.49437283     0.83600
O2134       O  0.88759759  0.61826288  0.58176991    -0.77600
C2135       C  0.86790202  0.51968375  0.99602815     0.84400
O2136       O  0.89846372  0.67229051  0.52061920    -0.77700
C2137       C  0.90075077  0.60525095  0.88929363     0.84500
C2138       C  0.98637715  0.63819924  0.99582580     0.84800
O2139       O  0.97471676  0.65308615  0.97829204    -0.80100
O2140       O  0.83367703  0.60745800  0.77044213    -0.77600
C2141       C  0.90112548  0.60488461  0.84841105     0.83400
O2142       O  0.92702420  0.68487811  0.71805014    -0.78700
O2143       O  0.96888205  0.61083053  0.76128084    -0.80200
O2144       O  0.85300320  0.53127597  0.72843203    -0.80000
O2145       O  0.82116019  0.57891826  0.71785340    -0.78600
Zn2146     Zn  0.88053311  0.62541988  0.77884593     1.55700
O2147       O  0.89532426  0.53724597  0.76141219    -0.80000
Cd2148     Cd  0.86293200  0.57610087  0.71212719     1.59700
Cd2149     Cd  0.92985783  0.64313693  0.71215114     1.59600
O2150       O  0.87662867  0.58286320  0.65631001    -0.80000
O2151       O  0.89826008  0.60777623  0.74450644    -1.90500
Cd2152     Cd  0.91930379  0.58683641  0.77276719     1.59900
O2153       O  0.92302482  0.62947829  0.65631843    -0.80000
O2154       O  0.91452349  0.59166071  0.83064996    -0.78600
C2155       C  0.91404970  0.69208583  0.74461454     0.83900
C2156       C  0.81391495  0.59189437  0.74438082     0.83600
O2157       O  0.88760803  0.61826070  0.83176746    -0.77600
C2158       C  0.86792284  0.51968022  0.74602983     0.85600
O2159       O  0.89848371  0.67229020  0.77062336    -0.77700
C2160       C  0.90075159  0.60525326  0.63929184     0.84500
C2161       C  0.98639714  0.63819256  0.74582279     0.84800
O2162       O  0.97473685  0.65307592  0.72828071    -0.80100
O2163       O  0.67403355  0.77751639  0.97618209    -0.77600
C2164       C  0.60652731  0.70733374  0.89815870     0.83400
O2165       O  0.58080551  0.76149670  0.52877819    -0.78700
O2166       O  0.53865774  0.64561046  0.98515156    -0.80200
O2167       O  0.65460150  0.68192761  0.51814348    -0.80000
O2168       O  0.68653027  0.76146413  0.52873032    -0.78600
Zn2169     Zn  0.62714693  0.74853706  0.96776115     1.55700
O2170       O  0.61226462  0.64546444  0.98519995    -0.80000
Cd2171     Cd  0.64472831  0.71683991  0.53442345     1.59700
Cd2172     Cd  0.57785963  0.71687629  0.53446664     1.59600
O2173       O  0.63105586  0.70990943  0.59024321    -0.80000
O2174       O  0.60940346  0.71312465  0.00204327    -1.90500
Cd2175     Cd  0.58829532  0.67108324  0.97377565     1.59900
O2176       O  0.58458002  0.70990140  0.59026812    -0.80000
O2177       O  0.59313582  0.68069642  0.91589940    -0.78600
C2178       C  0.59371573  0.78168693  0.00221439     0.83900
C2179       C  0.69378895  0.78172364  0.00224507     0.83600
O2180       O  0.62004014  0.73425217  0.91482145    -0.77600
C2181       C  0.63967636  0.65536707  0.00058809     0.84400
O2182       O  0.60919259  0.77744534  0.97609914    -0.77700
C2183       C  0.60689314  0.70805056  0.60727662     0.84500
C2184       C  0.52122167  0.65556477  0.00057568     0.84800
O2185       O  0.53297341  0.68209673  0.51818744    -0.80100
O2186       O  0.67406620  0.77749737  0.72616816    -0.77600
C2187       C  0.60653360  0.70731892  0.64815995     0.83400
O2188       O  0.58082577  0.76150107  0.77875660    -0.78700
O2189       O  0.53867818  0.64559793  0.73516368    -0.80200
O2190       O  0.65461679  0.68192693  0.76815667    -0.80000
O2191       O  0.68654411  0.76146447  0.77873218    -0.78600
Zn2192     Zn  0.62717706  0.74852848  0.71775567     1.55700
O2193       O  0.61229029  0.64546136  0.73520261    -0.80000
Cd2194     Cd  0.64474197  0.71684122  0.78443059     1.59700
Cd2195     Cd  0.57787546  0.71688170  0.78445155     1.59600
O2196       O  0.63106220  0.70992010  0.84025037    -0.80000
O2197       O  0.60942643  0.71311898  0.75204191    -1.90500
Cd2198     Cd  0.58831511  0.67107414  0.72378054     1.59900
O2199       O  0.58458735  0.70991412  0.84025660    -0.80000
O2200       O  0.59314242  0.68068234  0.66590254    -0.78600
C2201       C  0.59374950  0.78168765  0.75219755     0.83900
C2202       C  0.69381554  0.78171011  0.75223951     0.83600
O2203       O  0.62005636  0.73423806  0.66482042    -0.77600
C2204       C  0.63969872  0.65536267  0.75059896     0.84400
O2205       O  0.60923546  0.77744850  0.72608950    -0.77700
C2206       C  0.60689732  0.70806517  0.85727498     0.84500
C2207       C  0.52124196  0.65555926  0.75057203     0.84800
O2208       O  0.53298956  0.68210371  0.76816990    -0.80100
loop_ 
_geom_bond_atom_site_label_1 
_geom_bond_atom_site_label_2 
_geom_bond_distance 
_geom_bond_site_symmetry_2 
_ccdc_geom_bond_type 
O1           C17   1.268       .  A
O1           Zn7   1.980       .  S
C2           O18   1.271   1_556  A
C2          O291   1.274       .  A
C2          C201   1.470       .  S
O3          C292   1.275       .  A
O3          Cd10   2.091       .  S
O4           C22   1.274       .  A
O4          Cd13   2.072       .  S
O5          C295   1.280   1_554  A
O5           Cd9   2.106       .  S
O6           C17   1.277       .  A
O6           Cd9   2.105       .  S
Zn7          O18   1.992       .  S
Zn7          O20   1.992       .  S
Zn7          O12   1.916   1_554  S
O8           C19   1.273       .  A
O8          Cd13   2.045       .  S
Cd9          O11   2.106       .  S
Cd9          O12   2.020   1_554  S
Cd10         O14   2.045       .  S
Cd10         O23   2.072       .  S
Cd10        O288   1.987       .  S
O11         C297   1.280   1_554  A
O12        Cd286   1.987       .  S
O12        Cd289   1.987       .  S
Cd13         O15   2.090       .  S
Cd13        O288   1.987       .  S
O14          C21   1.273       .  A
O15         C278   1.275       .  A
C16          O20   1.271   1_556  A
C16         O279   1.275       .  A
C16         C108   1.470       .  S
C17          C45   1.460       .  S
C19         O281   1.280       .  A
C19         C617   1.460   1_545  S
C21         O287   1.280       .  A
C21         C249   1.461       .  S
C22          O23   1.274       .  A
C22          C40   1.460       .  S
O24          C40   1.268       .  A
O24         Zn30   1.980       .  S
C25          O41   1.271       .  A
C25          O38   1.275       .  A
C25         C224   1.470       .  S
O26          C39   1.275       .  A
O26         Cd33   2.091       .  S
O27          C45   1.274       .  A
O27         Cd36   2.072       .  S
O28          C42   1.280       .  A
O28         Cd32   2.106       .  S
O29          C40   1.277       .  A
O29         Cd32   2.104       .  S
Zn30         O41   1.992       .  S
Zn30         O43   1.992       .  S
Zn30         O35   1.916       .  S
O31          C42   1.273       .  A
O31         Cd36   2.045       .  S
Cd32         O34   2.106       .  S
Cd32         O35   2.020       .  S
Cd33         O37   2.045       .  S
Cd33         O46   2.072       .  S
Cd33         O35   1.987       .  S
O34          C44   1.280       .  A
O35         Cd36   1.987       .  S
Cd36         O38   2.090       .  S
O37          C44   1.273       .  A
C39          O43   1.271       .  A
C39         C117   1.470       .  S
C42         C640   1.460   1_545  S
C44         C272   1.461       .  S
C45          O46   1.274       .  A
O47          C63   1.268       .  A
O47         Zn53   1.980       .  S
C48          O64   1.271       .  A
C48         O337   1.275       .  A
C48         C155   1.470       .  S
O49         C338   1.275       .  A
O49         Cd56   2.090       .  S
O50          C68   1.274       .  A
O50         Cd59   2.072       .  S
O51          C65   1.279       .  A
O51         Cd55   2.105       .  S
O52          C63   1.277       .  A
O52         Cd55   2.104       .  S
Zn53         O64   1.991       .  S
Zn53         O66   1.991       .  S
Zn53         O58   1.916       .  S
O54         C341   1.274       .  A
O54         Cd59   2.046       .  S
Cd55         O57   2.105       .  S
Cd55         O58   2.020       .  S
Cd56         O60   2.046       .  S
Cd56         O69   2.072       .  S
Cd56        O334   1.987       .  S
O57         C343   1.279       .  A
O58        Cd332   1.987       .  S
O58        Cd335   1.987       .  S
Cd59         O61   2.090       .  S
Cd59        O334   1.988       .  S
O60          C67   1.274       .  A
O61         C324   1.275       .  A
C62          O66   1.271       .  A
C62         O325   1.275       .  A
C62         C246   1.470       .  S
C63          C91   1.460       .  S
C65         O330   1.274       .  A
C65         C571   1.460       .  S
C67         O333   1.279   1_554  A
C67        C1491   1.460   1_454  S
C68          O69   1.274       .  A
C68          C86   1.459       .  S
O70          C86   1.268       .  A
O70         Zn76   1.980       .  S
C71          O87   1.271       .  A
C71          O84   1.275       .  A
C71         C178   1.470       .  S
O72          C85   1.275       .  A
O72         Cd79   2.090       .  S
O73          C91   1.274       .  A
O73         Cd82   2.072       .  S
O74          C88   1.279       .  A
O74         Cd78   2.104       .  S
O75          C86   1.277       .  A
O75         Cd78   2.104       .  S
Zn76         O87   1.991       .  S
Zn76         O89   1.992       .  S
Zn76         O81   1.916       .  S
O77          C88   1.274       .  A
O77         Cd82   2.046       .  S
Cd78         O80   2.105       .  S
Cd78         O81   2.020       .  S
Cd79         O83   2.046       .  S
Cd79         O92   2.072       .  S
Cd79         O81   1.987       .  S
O80          C90   1.279       .  A
O81         Cd82   1.987       .  S
Cd82         O84   2.090       .  S
O83          C90   1.274       .  A
C85          O89   1.271       .  A
C85         C269   1.470       .  S
C88         C594   1.460       .  S
C90        C1240   1.460   1_455  S
C91          O92   1.274       .  A
O93         C109   1.271   1_554  A
O93         Zn99   1.992       .  S
C94         O110   1.269       .  A
C94         O107   1.277       .  A
C94         C137   1.460       .  S
O95         C384   1.275       .  A
O95        Cd102   2.091       .  S
O96         C390   1.280   1_554  A
O96        Cd105   2.106       .  S
O97         C111   1.273       .  A
O97        Cd101   2.044       .  S
O98         C385   1.275       .  A
O98        Cd101   2.089       .  S
Zn99        O110   1.981       .  S
Zn99        O112   1.992       .  S
Zn99        O104   1.917   1_554  S
O100        C387   1.280   1_554  A
O100       Cd105   2.106       .  S
Cd101       O103   2.072       .  S
Cd101       O380   1.987       .  S
Cd102       O106   2.072       .  S
Cd102       O115   2.045       .  S
Cd102       O380   1.987       .  S
O103        C113   1.274       .  A
O104       Cd105   2.020   1_556  S
O104       Cd377   1.987       .  S
O104       Cd378   1.987       .  S
Cd105       O107   2.104       .  S
O106        C113   1.274       .  A
C108        O112   1.271   1_556  A
C108        O371   1.275       .  A
C109        O374   1.275       .  A
C109        C200   1.470       .  S
C111        O376   1.280       .  A
C111       C1447   1.460       .  S
C113        C132   1.460       .  S
C114        O115   1.273       .  A
C114        O372   1.280       .  A
C114        C160   1.461       .  S
O116        C132   1.269       .  A
O116       Zn122   1.980       .  S
C117        O133   1.271       .  A
C117        O130   1.275       .  A
O118        C131   1.275       .  A
O118       Cd125   2.089       .  S
O119        C137   1.274       .  A
O119       Cd128   2.072       .  S
O120        C134   1.280       .  A
O120       Cd124   2.106       .  S
O121        C132   1.277       .  A
O121       Cd124   2.104       .  S
Zn122       O133   1.992       .  S
Zn122       O135   1.992       .  S
Zn122       O127   1.917       .  S
O123        C134   1.273       .  A
O123       Cd128   2.045       .  S
Cd124       O126   2.106       .  S
Cd124       O127   2.020       .  S
Cd125       O129   2.045       .  S
Cd125       O138   2.072       .  S
Cd125       O127   1.987       .  S
O126        C136   1.280       .  A
O127       Cd128   1.987       .  S
Cd128       O130   2.090       .  S
O129        C136   1.273       .  A
C131        O135   1.271       .  A
C131        C223   1.470       .  S
C134        C183   1.461       .  S
C136       C1194   1.460       .  S
C137        O138   1.274       .  A
O139        C155   1.271       .  A
O139       Zn145   1.992       .  S
C140        O156   1.268       .  A
C140        O153   1.277       .  A
C140        C182   1.460       .  S
O141        C430   1.275       .  A
O141       Cd148   2.091       .  S
O142        C160   1.280       .  A
O142       Cd151   2.106       .  S
O143        C433   1.273       .  A
O143       Cd147   2.045       .  S
O144        C431   1.274       .  A
O144       Cd147   2.090       .  S
Zn145       O156   1.980       .  S
Zn145       O158   1.992       .  S
Zn145       O150   1.916       .  S
O146        C157   1.280       .  A
O146       Cd151   2.106       .  S
Cd147       O149   2.072       .  S
Cd147       O426   1.987       .  S
Cd148       O152   2.072       .  S
Cd148       O161   2.045       .  S
Cd148       O426   1.987       .  S
O149        C159   1.274       .  A
O150       Cd151   2.020       .  S
O150       Cd423   1.987       .  S
O150       Cd424   1.987       .  S
Cd151       O153   2.104       .  S
O152        C159   1.274       .  A
C154        O158   1.271       .  A
C154        O417   1.275       .  A
C154        C247   1.470       .  S
C155        O420   1.275       .  A
C157        O419   1.273       .  A
C157        C755   1.460       .  S
C159        C163   1.460       .  S
C160        O437   1.273       .  A
O161        C436   1.273       .  A
O162        C178   1.271       .  A
O162       Zn168   1.992       .  S
C163        O179   1.268       .  A
C163        O176   1.277       .  A
O164        C177   1.275       .  A
O164       Cd171   2.091       .  S
O165        C183   1.280       .  A
O165       Cd174   2.106       .  S
O166        C180   1.273       .  A
O166       Cd170   2.045       .  S
O167        C178   1.275       .  A
O167       Cd170   2.090       .  S
Zn168       O179   1.980       .  S
Zn168       O181   1.992       .  S
Zn168       O173   1.916       .  S
O169        C180   1.280       .  A
O169       Cd174   2.106       .  S
Cd170       O172   2.072       .  S
Cd170       O173   1.987       .  S
Cd171       O175   2.072       .  S
Cd171       O184   2.045       .  S
Cd171       O173   1.987       .  S
O172        C182   1.274       .  A
O173       Cd174   2.020       .  S
Cd174       O176   2.105       .  S
O175        C182   1.274       .  A
C177        O181   1.271       .  A
C177        C270   1.470       .  S
C180        C778   1.460       .  S
C183        O184   1.273       .  A
O185        C201   1.271   1_554  A
O185       Zn191   1.991       .  S
C186        O202   1.268       .  A
C186        O199   1.277       .  A
C186        C228   1.459       .  S
O187        C476   1.275       .  A
O187       Cd194   2.090       .  S
O188        C482   1.279   1_554  A
O188       Cd197   2.105       .  S
O189        C203   1.274       .  A
O189       Cd193   2.046       .  S
O190        C477   1.275       .  A
O190       Cd193   2.090       .  S
Zn191       O202   1.980       .  S
Zn191       O204   1.992       .  S
Zn191       O196   1.917   1_554  S
O192        C479   1.279   1_554  A
O192       Cd197   2.104       .  S
Cd193       O195   2.072       .  S
Cd193       O472   1.987       .  S
Cd194       O198   2.072       .  S
Cd194       O207   2.046       .  S
Cd194       O472   1.987       .  S
O195        C205   1.274       .  A
O196       Cd197   2.020   1_556  S
O196       Cd469   1.987       .  S
O196       Cd470   1.987       .  S
Cd197       O199   2.104       .  S
O198        C205   1.274       .  A
C200        O204   1.271   1_556  A
C200        O463   1.275       .  A
C201        O466   1.275       .  A
C203        O468   1.279       .  A
C203        C709   1.460   1_545  S
C205        C209   1.459       .  S
C206        O207   1.273       .  A
C206        O464   1.279       .  A
C206       C1356   1.460       .  S
O208        C224   1.271       .  A
O208       Zn214   1.991       .  S
C209        O225   1.268       .  A
C209        O222   1.277       .  A
O210        C223   1.275       .  A
O210       Cd217   2.090       .  S
O211        C229   1.279       .  A
O211       Cd220   2.105       .  S
O212        C226   1.274       .  A
O212       Cd216   2.046       .  S
O213        C224   1.275       .  A
O213       Cd216   2.090       .  S
Zn214       O225   1.980       .  S
Zn214       O227   1.992       .  S
Zn214       O219   1.917       .  S
O215        C226   1.279       .  A
O215       Cd220   2.105       .  S
Cd216       O218   2.072       .  S
Cd216       O219   1.987       .  S
Cd217       O221   2.072       .  S
Cd217       O230   2.046       .  S
Cd217       O219   1.987       .  S
O218        C228   1.274       .  A
O219       Cd220   2.020       .  S
Cd220       O222   2.104       .  S
O221        C228   1.274       .  A
C223        O227   1.271       .  A
C226        C732   1.460   1_545  S
C229        O230   1.273       .  A
C229       C1379   1.460       .  S
O231        C247   1.271       .  A
O231       Zn237   1.993       .  S
C232        O248   1.269       .  A
C232        O245   1.277       .  A
C232        C274   1.460       .  S
O233        C522   1.275       .  A
O233       Cd240   2.089       .  S
O234        C252   1.280       .  A
O234       Cd243   2.106       .  S
O235        C525   1.273       .  A
O235       Cd239   2.045       .  S
O236        C523   1.275       .  A
O236       Cd239   2.090       .  S
Zn237       O248   1.981       .  S
Zn237       O250   1.993       .  S
Zn237       O242   1.917       .  S
O238        C249   1.280       .  A
O238       Cd243   2.107       .  S
Cd239       O241   2.072       .  S
Cd239       O518   1.987       .  S
Cd240       O244   2.072       .  S
Cd240       O253   2.044       .  S
Cd240       O518   1.987       .  S
O241        C251   1.274       .  A
O242       Cd243   2.020       .  S
O242       Cd515   1.987       .  S
O242       Cd516   1.987       .  S
Cd243       O245   2.104       .  S
O244        C251   1.274       .  A
C246        O250   1.271       .  A
C246        O509   1.274       .  A
C247        O512   1.275       .  A
C249        O511   1.273       .  A
C251        C255   1.460       .  S
C252        O529   1.273       .  A
C252       C1310   1.460   1_455  S
O253        C528   1.273       .  A
O254        C270   1.271       .  A
O254       Zn260   1.993       .  S
C255        O271   1.269       .  A
C255        O268   1.277       .  A
O256        C269   1.274       .  A
O256       Cd263   2.089       .  S
O257        C275   1.280       .  A
O257       Cd266   2.106       .  S
O258        C272   1.273       .  A
O258       Cd262   2.045       .  S
O259        C270   1.275       .  A
O259       Cd262   2.090       .  S
Zn260       O271   1.981       .  S
Zn260       O273   1.993       .  S
Zn260       O265   1.917       .  S
O261        C272   1.280       .  A
O261       Cd266   2.107       .  S
Cd262       O264   2.072       .  S
Cd262       O265   1.987       .  S
Cd263       O267   2.072       .  S
Cd263       O276   2.044       .  S
Cd263       O265   1.987       .  S
O264        C274   1.274       .  A
O265       Cd266   2.020       .  S
Cd266       O268   2.104       .  S
O267        C274   1.274       .  A
C269        O273   1.271       .  A
C275        O276   1.273       .  A
C275       C1333   1.460   1_455  S
O277        C293   1.268       .  A
O277       Zn283   1.980       .  S
C278        O294   1.271       .  A
C278        C477   1.470       .  S
O279       Cd286   2.091       .  S
O280        C298   1.274       .  A
O280       Cd289   2.072       .  S
O281       Cd285   2.106       .  S
O282        C293   1.277       .  A
O282       Cd285   2.105       .  S
Zn283       O294   1.992       .  S
Zn283       O296   1.992       .  S
Zn283       O288   1.916       .  S
O284        C295   1.273       .  A
O284       Cd289   2.045       .  S
Cd285       O287   2.106       .  S
Cd285       O288   2.020       .  S
Cd286       O290   2.045       .  S
Cd286       O299   2.072       .  S
Cd289       O291   2.090       .  S
O290        C297   1.273       .  A
C292        O296   1.271       .  A
C292        C384   1.470       .  S
C293        C321   1.460       .  S
C295        C893   1.460   1_546  S
C297        C525   1.461   1_556  S
C298        O299   1.274       .  A
C298        C316   1.460       .  S
O300        C316   1.268       .  A
O300       Zn306   1.980       .  S
C301        O317   1.271       .  A
C301        O314   1.275       .  A
C301        C500   1.470       .  S
O302        C315   1.275       .  A
O302       Cd309   2.091       .  S
O303        C321   1.274       .  A
O303       Cd312   2.072       .  S
O304        C318   1.280       .  A
O304       Cd308   2.106       .  S
O305        C316   1.277       .  A
O305       Cd308   2.104       .  S
Zn306       O317   1.992       .  S
Zn306       O319   1.992       .  S
Zn306       O311   1.916       .  S
O307        C318   1.273       .  A
O307       Cd312   2.045       .  S
Cd308       O310   2.106       .  S
Cd308       O311   2.020       .  S
Cd309       O313   2.045       .  S
Cd309       O322   2.072       .  S
Cd309       O311   1.987       .  S
O310        C320   1.280       .  A
O311       Cd312   1.987       .  S
Cd312       O314   2.090       .  S
O313        C320   1.273       .  A
C315        O319   1.271       .  A
C315        C393   1.470       .  S
C318        C916   1.460   1_545  S
C320        C548   1.461       .  S
C321        O322   1.274       .  A
O323        C339   1.268       .  A
O323       Zn329   1.980       .  S
C324        O340   1.271   1_554  A
C324        C431   1.470       .  S
O325       Cd332   2.090       .  S
O326        C344   1.274       .  A
O326       Cd335   2.072       .  S
O327        C341   1.279   1_556  A
O327       Cd331   2.105       .  S
O328        C339   1.277       .  A
O328       Cd331   2.104       .  S
Zn329       O340   1.991       .  S
Zn329       O342   1.991       .  S
Zn329       O334   1.916   1_556  S
O330       Cd335   2.046       .  S
Cd331       O333   2.105       .  S
Cd331       O334   2.020   1_556  S
Cd332       O336   2.046       .  S
Cd332       O345   2.072       .  S
Cd335       O337   2.090       .  S
O336        C343   1.273       .  A
C338        O342   1.271   1_554  A
C338        C522   1.470       .  S
C339        C367   1.460       .  S
C341        C847   1.460   1_554  S
C343       C1215   1.460   1_455  S
C344        O345   1.274       .  A
C344        C362   1.459       .  S
O346        C362   1.268       .  A
O346       Zn352   1.980       .  S
C347        O363   1.271       .  A
C347        O360   1.275       .  A
C347        C454   1.470       .  S
O348        C361   1.275       .  A
O348       Cd355   2.090       .  S
O349        C367   1.274       .  A
O349       Cd358   2.072       .  S
O350        C364   1.279       .  A
O350       Cd354   2.104       .  S
O351        C362   1.277       .  A
O351       Cd354   2.104       .  S
Zn352       O363   1.991       .  S
Zn352       O365   1.991       .  S
Zn352       O357   1.916       .  S
O353        C364   1.274       .  A
O353       Cd358   2.046       .  S
Cd354       O356   2.105       .  S
Cd354       O357   2.020       .  S
Cd355       O359   2.046       .  S
Cd355       O368   2.072       .  S
Cd355       O357   1.987       .  S
O356        C366   1.279       .  A
O357       Cd358   1.987       .  S
Cd358       O360   2.090       .  S
O359        C366   1.274       .  A
C361        O365   1.271       .  A
C361        C545   1.470       .  S
C364        C870   1.460       .  S
C366       C1516   1.460   1_455  S
C367        O368   1.274       .  A
O369        C385   1.271       .  A
O369       Zn375   1.992       .  S
C370        O386   1.269       .  A
C370        O383   1.277       .  A
C370        C413   1.460       .  S
O371       Cd378   2.091       .  S
O372       Cd381   2.106       .  S
O373        C387   1.273       .  A
O373       Cd377   2.044       .  S
O374       Cd377   2.089       .  S
Zn375       O386   1.981       .  S
Zn375       O388   1.992       .  S
Zn375       O380   1.917       .  S
O376       Cd381   2.106       .  S
Cd377       O379   2.072       .  S
Cd378       O382   2.072       .  S
Cd378       O391   2.045       .  S
O379        C389   1.274       .  A
O380       Cd381   2.020       .  S
Cd381       O383   2.104       .  S
O382        C389   1.274       .  A
C384        O388   1.271       .  A
C385        C476   1.470       .  S
C387       C1171   1.460   1_556  S
C389        C408   1.460       .  S
C390        O391   1.273       .  A
C390        C436   1.461   1_556  S
O392        C408   1.269       .  A
O392       Zn398   1.980       .  S
C393        O409   1.271       .  A
C393        O406   1.275       .  A
O394        C407   1.275       .  A
O394       Cd401   2.089       .  S
O395        C413   1.274       .  A
O395       Cd404   2.072       .  S
O396        C410   1.280       .  A
O396       Cd400   2.106       .  S
O397        C408   1.277       .  A
O397       Cd400   2.104       .  S
Zn398       O409   1.992       .  S
Zn398       O411   1.992       .  S
Zn398       O403   1.917       .  S
O399        C410   1.273       .  A
O399       Cd404   2.045       .  S
Cd400       O402   2.106       .  S
Cd400       O403   2.020       .  S
Cd401       O405   2.045       .  S
Cd401       O414   2.072       .  S
Cd401       O403   1.987       .  S
O402        C412   1.280       .  A
O403       Cd404   1.987       .  S
Cd404       O406   2.090       .  S
O405        C412   1.273       .  A
C407        O411   1.271       .  A
C407        C499   1.470       .  S
C410        C459   1.461       .  S
C412       C1470   1.460       .  S
C413        O414   1.274       .  A
O415        C431   1.272   1_556  A
O415       Zn421   1.992       .  S
C416        O432   1.268       .  A
C416        O429   1.277       .  A
C416        C458   1.460       .  S
O417       Cd424   2.091       .  S
O418        C436   1.280   1_556  A
O418       Cd427   2.106       .  S
O419       Cd423   2.045       .  S
O420       Cd423   2.090       .  S
Zn421       O432   1.980       .  S
Zn421       O434   1.992       .  S
Zn421       O426   1.916   1_556  S
O422        C433   1.280   1_556  A
O422       Cd427   2.106       .  S
Cd423       O425   2.072       .  S
Cd424       O428   2.072       .  S
Cd424       O437   2.045       .  S
O425        C435   1.274       .  A
O426       Cd427   2.020   1_554  S
Cd427       O429   2.104       .  S
O428        C435   1.274       .  A
C430        O434   1.271   1_554  A
C430        C523   1.470       .  S
C433       C1031   1.460   1_554  S
C435        C439   1.460       .  S
O438        C454   1.271       .  A
O438       Zn444   1.992       .  S
C439        O455   1.268       .  A
C439        O452   1.277       .  A
O440        C453   1.275       .  A
O440       Cd447   2.091       .  S
O441        C459   1.280       .  A
O441       Cd450   2.106       .  S
O442        C456   1.273       .  A
O442       Cd446   2.045       .  S
O443        C454   1.275       .  A
O443       Cd446   2.090       .  S
Zn444       O455   1.980       .  S
Zn444       O457   1.992       .  S
Zn444       O449   1.916       .  S
O445        C456   1.280       .  A
O445       Cd450   2.106       .  S
Cd446       O448   2.072       .  S
Cd446       O449   1.987       .  S
Cd447       O451   2.072       .  S
Cd447       O460   2.045       .  S
Cd447       O449   1.987       .  S
O448        C458   1.274       .  A
O449       Cd450   2.020       .  S
Cd450       O452   2.105       .  S
O451        C458   1.274       .  A
C453        O457   1.271       .  A
C453        C546   1.470       .  S
C456       C1054   1.460       .  S
C459        O460   1.273       .  A
O461        C477   1.271       .  A
O461       Zn467   1.991       .  S
C462        O478   1.268       .  A
C462        O475   1.277       .  A
C462        C504   1.459       .  S
O463       Cd470   2.090       .  S
O464       Cd473   2.105       .  S
O465        C479   1.274       .  A
O465       Cd469   2.046       .  S
O466       Cd469   2.090       .  S
Zn467       O478   1.980       .  S
Zn467       O480   1.992       .  S
Zn467       O472   1.917       .  S
O468       Cd473   2.104       .  S
Cd469       O471   2.072       .  S
Cd470       O474   2.072       .  S
Cd470       O483   2.046       .  S
O471        C481   1.274       .  A
O472       Cd473   2.020       .  S
Cd473       O475   2.104       .  S
O474        C481   1.274       .  A
C476        O480   1.271       .  A
C479        C985   1.460   1_546  S
C481        C485   1.459       .  S
C482        O483   1.273       .  A
C482       C1632   1.460   1_556  S
O484        C500   1.271       .  A
O484       Zn490   1.991       .  S
C485        O501   1.268       .  A
C485        O498   1.277       .  A
O486        C499   1.275       .  A
O486       Cd493   2.090       .  S
O487        C505   1.279       .  A
O487       Cd496   2.105       .  S
O488        C502   1.274       .  A
O488       Cd492   2.046       .  S
O489        C500   1.275       .  A
O489       Cd492   2.090       .  S
Zn490       O501   1.980       .  S
Zn490       O503   1.992       .  S
Zn490       O495   1.917       .  S
O491        C502   1.279       .  A
O491       Cd496   2.105       .  S
Cd492       O494   2.072       .  S
Cd492       O495   1.987       .  S
Cd493       O497   2.072       .  S
Cd493       O506   2.046       .  S
Cd493       O495   1.987       .  S
O494        C504   1.274       .  A
O495       Cd496   2.020       .  S
Cd496       O498   2.104       .  S
O497        C504   1.274       .  A
C499        O503   1.271       .  A
C502       C1008   1.460   1_545  S
C505        O506   1.273       .  A
C505       C1655   1.460       .  S
O507        C523   1.271   1_556  A
O507       Zn513   1.993       .  S
C508        O524   1.269       .  A
C508        O521   1.277       .  A
C508        C550   1.460       .  S
O509       Cd516   2.089       .  S
O510        C528   1.280   1_556  A
O510       Cd519   2.106       .  S
O511       Cd515   2.045       .  S
O512       Cd515   2.090       .  S
Zn513       O524   1.981       .  S
Zn513       O526   1.993       .  S
Zn513       O518   1.917   1_556  S
O514        C525   1.280   1_556  A
O514       Cd519   2.107       .  S
Cd515       O517   2.072       .  S
Cd516       O520   2.072       .  S
Cd516       O529   2.044       .  S
O517        C527   1.274       .  A
O518       Cd519   2.020   1_554  S
Cd519       O521   2.104       .  S
O520        C527   1.274       .  A
C522        O526   1.271   1_554  A
C527        C531   1.460       .  S
C528       C1586   1.460   1_454  S
O530        C546   1.271       .  A
O530       Zn536   1.993       .  S
C531        O547   1.269       .  A
C531        O544   1.277       .  A
O532        C545   1.274       .  A
O532       Cd539   2.089       .  S
O533        C551   1.280       .  A
O533       Cd542   2.106       .  S
O534        C548   1.273       .  A
O534       Cd538   2.045       .  S
O535        C546   1.275       .  A
O535       Cd538   2.090       .  S
Zn536       O547   1.981       .  S
Zn536       O549   1.993       .  S
Zn536       O541   1.917       .  S
O537        C548   1.280       .  A
O537       Cd542   2.107       .  S
Cd538       O540   2.072       .  S
Cd538       O541   1.987       .  S
Cd539       O543   2.072       .  S
Cd539       O552   2.044       .  S
Cd539       O541   1.987       .  S
O540        C550   1.274       .  A
O541       Cd542   2.020       .  S
Cd542       O544   2.104       .  S
O543        C550   1.274       .  A
C545        O549   1.271       .  A
C551        O552   1.273       .  A
C551       C1609   1.460   1_455  S
O553        C569   1.268       .  A
O553       Zn559   1.980       .  S
C554        O570   1.271   1_556  A
C554        O843   1.274       .  A
C554        C753   1.470       .  S
O555        C844   1.275       .  A
O555       Cd562   2.091       .  S
O556        C574   1.274       .  A
O556       Cd565   2.072       .  S
O557        C847   1.280   1_554  A
O557       Cd561   2.106       .  S
O558        C569   1.277       .  A
O558       Cd561   2.105       .  S
Zn559       O570   1.992       .  S
Zn559       O572   1.992       .  S
Zn559       O564   1.916   1_554  S
O560        C571   1.273       .  A
O560       Cd565   2.045       .  S
Cd561       O563   2.106       .  S
Cd561       O564   2.020   1_554  S
Cd562       O566   2.045       .  S
Cd562       O575   2.072       .  S
Cd562       O840   1.987       .  S
O563        C849   1.280   1_554  A
O564       Cd838   1.987       .  S
O564       Cd841   1.987       .  S
Cd565       O567   2.090       .  S
Cd565       O840   1.987       .  S
O566        C573   1.273       .  A
O567        C830   1.275       .  A
C568        O831   1.275       .  A
C568        O572   1.271   1_556  A
C568        C660   1.470       .  S
C569        C597   1.460       .  S
C571        O833   1.280       .  A
C573        O839   1.280       .  A
C573        C801   1.461       .  S
C574        O575   1.274       .  A
C574        C592   1.460       .  S
O576        C592   1.268       .  A
O576       Zn582   1.980       .  S
C577        O593   1.271       .  A
C577        O590   1.275       .  A
C577        C776   1.470       .  S
O578        C591   1.275       .  A
O578       Cd585   2.091       .  S
O579        C597   1.274       .  A
O579       Cd588   2.072       .  S
O580        C594   1.280       .  A
O580       Cd584   2.106       .  S
O581        C592   1.277       .  A
O581       Cd584   2.104       .  S
Zn582       O593   1.992       .  S
Zn582       O595   1.992       .  S
Zn582       O587   1.916       .  S
O583        C594   1.273       .  A
O583       Cd588   2.045       .  S
Cd584       O586   2.106       .  S
Cd584       O587   2.020       .  S
Cd585       O589   2.045       .  S
Cd585       O598   2.072       .  S
Cd585       O587   1.987       .  S
O586        C596   1.280       .  A
O587       Cd588   1.987       .  S
Cd588       O590   2.090       .  S
O589        C596   1.273       .  A
C591        O595   1.271       .  A
C591        C669   1.470       .  S
C596        C824   1.461       .  S
C597        O598   1.274       .  A
O599        C615   1.268       .  A
O599       Zn605   1.980       .  S
C600        O616   1.271       .  A
C600        O889   1.275       .  A
C600        C707   1.470       .  S
O601        C890   1.275       .  A
O601       Cd608   2.090       .  S
O602        C620   1.274       .  A
O602       Cd611   2.072       .  S
O603        C617   1.279       .  A
O603       Cd607   2.105       .  S
O604        C615   1.277       .  A
O604       Cd607   2.104       .  S
Zn605       O616   1.991       .  S
Zn605       O618   1.991       .  S
Zn605       O610   1.916       .  S
O606        C893   1.274       .  A
O606       Cd611   2.046       .  S
Cd607       O609   2.105       .  S
Cd607       O610   2.020       .  S
Cd608       O612   2.046       .  S
Cd608       O621   2.072       .  S
Cd608       O886   1.987       .  S
O609        C895   1.279       .  A
O610       Cd884   1.987       .  S
O610       Cd887   1.987       .  S
Cd611       O613   2.090       .  S
Cd611       O886   1.988       .  S
O612        C619   1.274       .  A
O613        C876   1.275       .  A
C614        O877   1.275       .  A
C614        O618   1.271       .  A
C614        C798   1.470       .  S
C615        C643   1.460       .  S
C617        O882   1.274       .  A
C619        O885   1.279   1_554  A
C619       C2043   1.460   1_454  S
C620        O621   1.274       .  A
C620        C638   1.459       .  S
O622        C638   1.268       .  A
O622       Zn628   1.980       .  S
C623        O639   1.271       .  A
C623        O636   1.275       .  A
C623        C730   1.470       .  S
O624        C637   1.275       .  A
O624       Cd631   2.090       .  S
O625        C643   1.274       .  A
O625       Cd634   2.072       .  S
O626        C640   1.279       .  A
O626       Cd630   2.104       .  S
O627        C638   1.277       .  A
O627       Cd630   2.104       .  S
Zn628       O639   1.991       .  S
Zn628       O641   1.992       .  S
Zn628       O633   1.916       .  S
O629        C640   1.274       .  A
O629       Cd634   2.046       .  S
Cd630       O632   2.105       .  S
Cd630       O633   2.020       .  S
Cd631       O635   2.046       .  S
Cd631       O644   2.072       .  S
Cd631       O633   1.987       .  S
O632        C642   1.279       .  A
O633       Cd634   1.987       .  S
Cd634       O636   2.090       .  S
O635        C642   1.274       .  A
C637        O641   1.271       .  A
C637        C821   1.470       .  S
C642       C1792   1.460   1_455  S
C643        O644   1.274       .  A
O645        C661   1.271   1_554  A
O645       Zn651   1.992       .  S
C646        O662   1.269       .  A
C646        O659   1.277       .  A
C646        C689   1.460       .  S
O647        C936   1.275       .  A
O647       Cd654   2.091       .  S
O648        C942   1.280   1_554  A
O648       Cd657   2.106       .  S
O649        C663   1.273       .  A
O649       Cd653   2.044       .  S
O650        C937   1.274       .  A
O650       Cd653   2.089       .  S
Zn651       O662   1.981       .  S
Zn651       O664   1.992       .  S
Zn651       O656   1.917   1_554  S
O652        C939   1.280   1_554  A
O652       Cd657   2.106       .  S
Cd653       O655   2.072       .  S
Cd653       O932   1.987       .  S
Cd654       O658   2.072       .  S
Cd654       O667   2.045       .  S
Cd654       O932   1.987       .  S
O655        C665   1.274       .  A
O656       Cd929   1.987       .  S
O656       Cd930   1.987       .  S
O656       Cd657   2.020   1_556  S
Cd657       O659   2.104       .  S
O658        C665   1.274       .  A
C660        O923   1.275       .  A
C660        O664   1.271   1_556  A
C661        O926   1.275       .  A
C661        C752   1.470       .  S
C663        O928   1.280       .  A
C663       C1999   1.460       .  S
C665        C684   1.460       .  S
C666        O924   1.280       .  A
C666        O667   1.273       .  A
C666        C712   1.461       .  S
O668        C684   1.269       .  A
O668       Zn674   1.980       .  S
C669        O685   1.271       .  A
C669        O682   1.275       .  A
O670        C683   1.275       .  A
O670       Cd677   2.089       .  S
O671        C689   1.274       .  A
O671       Cd680   2.072       .  S
O672        C686   1.280       .  A
O672       Cd676   2.106       .  S
O673        C684   1.277       .  A
O673       Cd676   2.104       .  S
Zn674       O685   1.992       .  S
Zn674       O687   1.992       .  S
Zn674       O679   1.917       .  S
O675        C686   1.273       .  A
O675       Cd680   2.045       .  S
Cd676       O678   2.106       .  S
Cd676       O679   2.020       .  S
Cd677       O681   2.045       .  S
Cd677       O690   2.072       .  S
Cd677       O679   1.987       .  S
O678        C688   1.280       .  A
O679       Cd680   1.987       .  S
Cd680       O682   2.090       .  S
O681        C688   1.273       .  A
C683        O687   1.271       .  A
C683        C775   1.470       .  S
C686        C735   1.461       .  S
C688       C1746   1.460       .  S
C689        O690   1.274       .  A
O691        C707   1.271       .  A
O691       Zn697   1.992       .  S
C692        O708   1.268       .  A
C692        O705   1.277       .  A
C692        C734   1.460       .  S
O693        C982   1.275       .  A
O693       Cd700   2.091       .  S
O694        C712   1.280       .  A
O694       Cd703   2.106       .  S
O695        C985   1.273       .  A
O695       Cd699   2.045       .  S
O696        C983   1.274       .  A
O696       Cd699   2.090       .  S
Zn697       O708   1.980       .  S
Zn697       O710   1.992       .  S
Zn697       O702   1.916       .  S
O698        C709   1.280       .  A
O698       Cd703   2.106       .  S
Cd699       O701   2.072       .  S
Cd699       O978   1.987       .  S
Cd700       O704   2.072       .  S
Cd700       O713   2.045       .  S
Cd700       O978   1.987       .  S
O701        C711   1.274       .  A
O702       Cd975   1.987       .  S
O702       Cd976   1.987       .  S
O702       Cd703   2.020       .  S
Cd703       O705   2.104       .  S
O704        C711   1.274       .  A
C706        O969   1.275       .  A
C706        O710   1.271       .  A
C706        C799   1.470       .  S
C707        O972   1.275       .  A
C709        O971   1.273       .  A
C711        C715   1.460       .  S
C712        O989   1.273       .  A
O713        C988   1.273       .  A
O714        C730   1.271       .  A
O714       Zn720   1.992       .  S
C715        O731   1.268       .  A
C715        O728   1.277       .  A
O716        C729   1.275       .  A
O716       Cd723   2.091       .  S
O717        C735   1.280       .  A
O717       Cd726   2.106       .  S
O718        C732   1.273       .  A
O718       Cd722   2.045       .  S
O719        C730   1.275       .  A
O719       Cd722   2.090       .  S
Zn720       O731   1.980       .  S
Zn720       O733   1.992       .  S
Zn720       O725   1.916       .  S
O721        C732   1.280       .  A
O721       Cd726   2.106       .  S
Cd722       O724   2.072       .  S
Cd722       O725   1.987       .  S
Cd723       O727   2.072       .  S
Cd723       O736   2.045       .  S
Cd723       O725   1.987       .  S
O724        C734   1.274       .  A
O725       Cd726   2.020       .  S
Cd726       O728   2.105       .  S
O727        C734   1.274       .  A
C729        O733   1.271       .  A
C729        C822   1.470       .  S
C735        O736   1.273       .  A
O737        C753   1.271   1_554  A
O737       Zn743   1.991       .  S
C738        O754   1.268       .  A
C738        O751   1.277       .  A
C738        C780   1.459       .  S
O739       C1028   1.275       .  A
O739       Cd746   2.090       .  S
O740       C1034   1.279   1_554  A
O740       Cd749   2.105       .  S
O741        C755   1.274       .  A
O741       Cd745   2.046       .  S
O742       C1029   1.275       .  A
O742       Cd745   2.090       .  S
Zn743       O754   1.980       .  S
Zn743       O756   1.992       .  S
Zn743       O748   1.917   1_554  S
O744       C1031   1.279   1_554  A
O744       Cd749   2.104       .  S
Cd745       O747   2.072       .  S
Cd745      O1024   1.987       .  S
Cd746       O750   2.072       .  S
Cd746       O759   2.046       .  S
Cd746      O1024   1.987       .  S
O747        C757   1.274       .  A
O748      Cd1021   1.987       .  S
O748      Cd1022   1.987       .  S
O748       Cd749   2.020   1_556  S
Cd749       O751   2.104       .  S
O750        C757   1.274       .  A
C752       O1015   1.275       .  A
C752        O756   1.271   1_556  A
C753       O1018   1.275       .  A
C755       O1020   1.279       .  A
C757        C761   1.459       .  S
C758       O1016   1.279       .  A
C758        O759   1.273       .  A
C758       C1908   1.460       .  S
O760        C776   1.271       .  A
O760       Zn766   1.991       .  S
C761        O777   1.268       .  A
C761        O774   1.277       .  A
O762        C775   1.275       .  A
O762       Cd769   2.090       .  S
O763        C781   1.279       .  A
O763       Cd772   2.105       .  S
O764        C778   1.274       .  A
O764       Cd768   2.046       .  S
O765        C776   1.275       .  A
O765       Cd768   2.090       .  S
Zn766       O777   1.980       .  S
Zn766       O779   1.992       .  S
Zn766       O771   1.917       .  S
O767        C778   1.279       .  A
O767       Cd772   2.105       .  S
Cd768       O770   2.072       .  S
Cd768       O771   1.987       .  S
Cd769       O773   2.072       .  S
Cd769       O782   2.046       .  S
Cd769       O771   1.987       .  S
O770        C780   1.274       .  A
O771       Cd772   2.020       .  S
Cd772       O774   2.104       .  S
O773        C780   1.274       .  A
C775        O779   1.271       .  A
C781        O782   1.273       .  A
C781       C1931   1.460       .  S
O783        C799   1.271       .  A
O783       Zn789   1.993       .  S
C784        O800   1.269       .  A
C784        O797   1.277       .  A
C784        C826   1.460       .  S
O785       C1074   1.275       .  A
O785       Cd792   2.089       .  S
O786        C804   1.280       .  A
O786       Cd795   2.106       .  S
O787       C1077   1.273       .  A
O787       Cd791   2.045       .  S
O788       C1075   1.275       .  A
O788       Cd791   2.090       .  S
Zn789       O800   1.981       .  S
Zn789       O802   1.993       .  S
Zn789       O794   1.917       .  S
O790        C801   1.280       .  A
O790       Cd795   2.107       .  S
Cd791       O793   2.072       .  S
Cd791      O1070   1.987       .  S
Cd792       O796   2.072       .  S
Cd792       O805   2.044       .  S
Cd792      O1070   1.987       .  S
O793        C803   1.274       .  A
O794      Cd1067   1.987       .  S
O794      Cd1068   1.987       .  S
O794       Cd795   2.020       .  S
Cd795       O797   2.104       .  S
O796        C803   1.274       .  A
C798       O1061   1.274       .  A
C798        O802   1.271       .  A
C799       O1064   1.275       .  A
C801       O1063   1.273       .  A
C803        C807   1.460       .  S
C804       O1081   1.273       .  A
C804       C1862   1.460   1_455  S
O805       C1080   1.273       .  A
O806        C822   1.271       .  A
O806       Zn812   1.993       .  S
C807        O823   1.269       .  A
C807        O820   1.277       .  A
O808        C821   1.274       .  A
O808       Cd815   2.089       .  S
O809        C827   1.280       .  A
O809       Cd818   2.106       .  S
O810        C824   1.273       .  A
O810       Cd814   2.045       .  S
O811        C822   1.275       .  A
O811       Cd814   2.090       .  S
Zn812       O823   1.981       .  S
Zn812       O825   1.993       .  S
Zn812       O817   1.917       .  S
O813        C824   1.280       .  A
O813       Cd818   2.107       .  S
Cd814       O816   2.072       .  S
Cd814       O817   1.987       .  S
Cd815       O819   2.072       .  S
Cd815       O828   2.044       .  S
Cd815       O817   1.987       .  S
O816        C826   1.274       .  A
O817       Cd818   2.020       .  S
Cd818       O820   2.104       .  S
O819        C826   1.274       .  A
C821        O825   1.271       .  A
C827        O828   1.273       .  A
C827       C1885   1.460   1_455  S
O829        C845   1.268       .  A
O829       Zn835   1.980       .  S
C830        O846   1.271       .  A
C830       C1029   1.470       .  S
O831       Cd838   2.091       .  S
O832        C850   1.274       .  A
O832       Cd841   2.072       .  S
O833       Cd837   2.106       .  S
O834        C845   1.277       .  A
O834       Cd837   2.105       .  S
Zn835       O846   1.992       .  S
Zn835       O848   1.992       .  S
Zn835       O840   1.916       .  S
O836        C847   1.273       .  A
O836       Cd841   2.045       .  S
Cd837       O839   2.106       .  S
Cd837       O840   2.020       .  S
Cd838       O842   2.045       .  S
Cd838       O851   2.072       .  S
Cd841       O843   2.090       .  S
O842        C849   1.273       .  A
C844        O848   1.271       .  A
C844        C936   1.470       .  S
C845        C873   1.460       .  S
C849       C1077   1.461   1_556  S
C850        O851   1.274       .  A
C850        C868   1.460       .  S
O852        C868   1.268       .  A
O852       Zn858   1.980       .  S
C853        O869   1.271       .  A
C853        O866   1.275       .  A
C853       C1052   1.470       .  S
O854        C867   1.275       .  A
O854       Cd861   2.091       .  S
O855        C873   1.274       .  A
O855       Cd864   2.072       .  S
O856        C870   1.280       .  A
O856       Cd860   2.106       .  S
O857        C868   1.277       .  A
O857       Cd860   2.104       .  S
Zn858       O869   1.992       .  S
Zn858       O871   1.992       .  S
Zn858       O863   1.916       .  S
O859        C870   1.273       .  A
O859       Cd864   2.045       .  S
Cd860       O862   2.106       .  S
Cd860       O863   2.020       .  S
Cd861       O865   2.045       .  S
Cd861       O874   2.072       .  S
Cd861       O863   1.987       .  S
O862        C872   1.280       .  A
O863       Cd864   1.987       .  S
Cd864       O866   2.090       .  S
O865        C872   1.273       .  A
C867        O871   1.271       .  A
C867        C945   1.470       .  S
C872       C1100   1.461       .  S
C873        O874   1.274       .  A
O875        C891   1.268       .  A
O875       Zn881   1.980       .  S
C876        O892   1.271   1_554  A
C876        C983   1.470       .  S
O877       Cd884   2.090       .  S
O878        C896   1.274       .  A
O878       Cd887   2.072       .  S
O879        C893   1.279   1_556  A
O879       Cd883   2.105       .  S
O880        C891   1.277       .  A
O880       Cd883   2.104       .  S
Zn881       O892   1.991       .  S
Zn881       O894   1.991       .  S
Zn881       O886   1.916   1_556  S
O882       Cd887   2.046       .  S
Cd883       O885   2.105       .  S
Cd883       O886   2.020   1_556  S
Cd884       O888   2.046       .  S
Cd884       O897   2.072       .  S
Cd887       O889   2.090       .  S
O888        C895   1.274       .  A
C890        O894   1.271   1_554  A
C890       C1074   1.470       .  S
C891        C919   1.460       .  S
C895       C1767   1.460   1_455  S
C896        O897   1.274       .  A
C896        C914   1.459       .  S
O898        C914   1.268       .  A
O898       Zn904   1.980       .  S
C899        O915   1.271       .  A
C899        O912   1.275       .  A
C899       C1006   1.470       .  S
O900        C913   1.275       .  A
O900       Cd907   2.090       .  S
O901        C919   1.274       .  A
O901       Cd910   2.072       .  S
O902        C916   1.279       .  A
O902       Cd906   2.104       .  S
O903        C914   1.277       .  A
O903       Cd906   2.104       .  S
Zn904       O915   1.991       .  S
Zn904       O917   1.991       .  S
Zn904       O909   1.916       .  S
O905        C916   1.274       .  A
O905       Cd910   2.046       .  S
Cd906       O908   2.105       .  S
Cd906       O909   2.020       .  S
Cd907       O911   2.046       .  S
Cd907       O920   2.072       .  S
Cd907       O909   1.987       .  S
O908        C918   1.279       .  A
O909       Cd910   1.987       .  S
Cd910       O912   2.090       .  S
O911        C918   1.274       .  A
C913        O917   1.271       .  A
C913       C1097   1.470       .  S
C918       C2068   1.460   1_455  S
C919        O920   1.274       .  A
O921        C937   1.271       .  A
O921       Zn927   1.992       .  S
C922        O938   1.269       .  A
C922        O935   1.277       .  A
C922        C965   1.460       .  S
O923       Cd930   2.091       .  S
O924       Cd933   2.106       .  S
O925        C939   1.273       .  A
O925       Cd929   2.044       .  S
O926       Cd929   2.089       .  S
Zn927       O938   1.981       .  S
Zn927       O940   1.992       .  S
Zn927       O932   1.917       .  S
O928       Cd933   2.106       .  S
Cd929       O931   2.072       .  S
Cd930       O934   2.072       .  S
Cd930       O943   2.045       .  S
O931        C941   1.274       .  A
O932       Cd933   2.020       .  S
Cd933       O935   2.104       .  S
O934        C941   1.274       .  A
C936        O940   1.271       .  A
C937       C1028   1.470       .  S
C939       C1723   1.460   1_556  S
C941        C960   1.460       .  S
C942        O943   1.273       .  A
C942        C988   1.461   1_556  S
O944        C960   1.269       .  A
O944       Zn950   1.980       .  S
C945        O961   1.271       .  A
C945        O958   1.275       .  A
O946        C959   1.275       .  A
O946       Cd953   2.089       .  S
O947        C965   1.274       .  A
O947       Cd956   2.072       .  S
O948        C962   1.280       .  A
O948       Cd952   2.106       .  S
O949        C960   1.277       .  A
O949       Cd952   2.104       .  S
Zn950       O961   1.992       .  S
Zn950       O963   1.992       .  S
Zn950       O955   1.917       .  S
O951        C962   1.273       .  A
O951       Cd956   2.045       .  S
Cd952       O954   2.106       .  S
Cd952       O955   2.020       .  S
Cd953       O957   2.045       .  S
Cd953       O966   2.072       .  S
Cd953       O955   1.987       .  S
O954        C964   1.280       .  A
O955       Cd956   1.987       .  S
Cd956       O958   2.090       .  S
O957        C964   1.273       .  A
C959        O963   1.271       .  A
C959       C1051   1.470       .  S
C962       C1011   1.461       .  S
C964       C2022   1.460       .  S
C965        O966   1.274       .  A
O967        C983   1.272   1_556  A
O967       Zn973   1.992       .  S
C968        O984   1.268       .  A
C968        O981   1.277       .  A
C968       C1010   1.460       .  S
O969       Cd976   2.091       .  S
O970        C988   1.280   1_556  A
O970       Cd979   2.106       .  S
O971       Cd975   2.045       .  S
O972       Cd975   2.090       .  S
Zn973       O984   1.980       .  S
Zn973       O986   1.992       .  S
Zn973       O978   1.916   1_556  S
O974        C985   1.280   1_556  A
O974       Cd979   2.106       .  S
Cd975       O977   2.072       .  S
Cd976       O980   2.072       .  S
Cd976       O989   2.045       .  S
O977        C987   1.274       .  A
O978       Cd979   2.020   1_554  S
Cd979       O981   2.104       .  S
O980        C987   1.274       .  A
C982        O986   1.271   1_554  A
C982       C1075   1.470       .  S
C987        C991   1.460       .  S
O990       C1006   1.271       .  A
O990       Zn996   1.992       .  S
C991       O1007   1.268       .  A
C991       O1004   1.277       .  A
O992       C1005   1.275       .  A
O992       Cd999   2.091       .  S
O993       C1011   1.280       .  A
O993      Cd1002   2.106       .  S
O994       C1008   1.273       .  A
O994       Cd998   2.045       .  S
O995       C1006   1.275       .  A
O995       Cd998   2.090       .  S
Zn996      O1007   1.980       .  S
Zn996      O1009   1.992       .  S
Zn996      O1001   1.916       .  S
O997       C1008   1.280       .  A
O997      Cd1002   2.106       .  S
Cd998      O1000   2.072       .  S
Cd998      O1001   1.987       .  S
Cd999      O1003   2.072       .  S
Cd999      O1012   2.045       .  S
Cd999      O1001   1.987       .  S
O1000      C1010   1.274       .  A
O1001     Cd1002   2.020       .  S
Cd1002     O1004   2.105       .  S
O1003      C1010   1.274       .  A
C1005      O1009   1.271       .  A
C1005      C1098   1.470       .  S
C1011      O1012   1.273       .  A
O1013      C1029   1.271       .  A
O1013     Zn1019   1.991       .  S
C1014      O1030   1.268       .  A
C1014      O1027   1.277       .  A
C1014      C1056   1.459       .  S
O1015     Cd1022   2.090       .  S
O1016     Cd1025   2.105       .  S
O1017      C1031   1.274       .  A
O1017     Cd1021   2.046       .  S
O1018     Cd1021   2.090       .  S
Zn1019     O1030   1.980       .  S
Zn1019     O1032   1.992       .  S
Zn1019     O1024   1.917       .  S
O1020     Cd1025   2.104       .  S
Cd1021     O1023   2.072       .  S
Cd1022     O1026   2.072       .  S
Cd1022     O1035   2.046       .  S
O1023      C1033   1.274       .  A
O1024     Cd1025   2.020       .  S
Cd1025     O1027   2.104       .  S
O1026      C1033   1.274       .  A
C1028      O1032   1.271       .  A
C1033      C1037   1.459       .  S
C1034      O1035   1.273       .  A
C1034      C2184   1.460   1_556  S
O1036      C1052   1.271       .  A
O1036     Zn1042   1.991       .  S
C1037      O1053   1.268       .  A
C1037      O1050   1.277       .  A
O1038      C1051   1.275       .  A
O1038     Cd1045   2.090       .  S
O1039      C1057   1.279       .  A
O1039     Cd1048   2.105       .  S
O1040      C1054   1.274       .  A
O1040     Cd1044   2.046       .  S
O1041      C1052   1.275       .  A
O1041     Cd1044   2.090       .  S
Zn1042     O1053   1.980       .  S
Zn1042     O1055   1.992       .  S
Zn1042     O1047   1.917       .  S
O1043      C1054   1.279       .  A
O1043     Cd1048   2.105       .  S
Cd1044     O1046   2.072       .  S
Cd1044     O1047   1.987       .  S
Cd1045     O1049   2.072       .  S
Cd1045     O1058   2.046       .  S
Cd1045     O1047   1.987       .  S
O1046      C1056   1.274       .  A
O1047     Cd1048   2.020       .  S
Cd1048     O1050   2.104       .  S
O1049      C1056   1.274       .  A
C1051      O1055   1.271       .  A
C1057      O1058   1.273       .  A
C1057      C2207   1.460       .  S
O1059      C1075   1.271   1_556  A
O1059     Zn1065   1.993       .  S
C1060      O1076   1.269       .  A
C1060      O1073   1.277       .  A
C1060      C1102   1.460       .  S
O1061     Cd1068   2.089       .  S
O1062      C1080   1.280   1_556  A
O1062     Cd1071   2.106       .  S
O1063     Cd1067   2.045       .  S
O1064     Cd1067   2.090       .  S
Zn1065     O1076   1.981       .  S
Zn1065     O1078   1.993       .  S
Zn1065     O1070   1.917   1_556  S
O1066      C1077   1.280   1_556  A
O1066     Cd1071   2.107       .  S
Cd1067     O1069   2.072       .  S
Cd1068     O1072   2.072       .  S
Cd1068     O1081   2.044       .  S
O1069      C1079   1.274       .  A
O1070     Cd1071   2.020   1_554  S
Cd1071     O1073   2.104       .  S
O1072      C1079   1.274       .  A
C1074      O1078   1.271   1_554  A
C1079      C1083   1.460       .  S
C1080      C2138   1.460   1_454  S
O1082      C1098   1.271       .  A
O1082     Zn1088   1.993       .  S
C1083      O1099   1.269       .  A
C1083      O1096   1.277       .  A
O1084      C1097   1.274       .  A
O1084     Cd1091   2.089       .  S
O1085      C1103   1.280       .  A
O1085     Cd1094   2.106       .  S
O1086      C1100   1.273       .  A
O1086     Cd1090   2.045       .  S
O1087      C1098   1.275       .  A
O1087     Cd1090   2.090       .  S
Zn1088     O1099   1.981       .  S
Zn1088     O1101   1.993       .  S
Zn1088     O1093   1.917       .  S
O1089      C1100   1.280       .  A
O1089     Cd1094   2.107       .  S
Cd1090     O1092   2.072       .  S
Cd1090     O1093   1.987       .  S
Cd1091     O1095   2.072       .  S
Cd1091     O1104   2.044       .  S
Cd1091     O1093   1.987       .  S
O1092      C1102   1.274       .  A
O1093     Cd1094   2.020       .  S
Cd1094     O1096   2.104       .  S
O1095      C1102   1.274       .  A
C1097      O1101   1.271       .  A
C1103      O1104   1.273       .  A
C1103      C2161   1.460   1_455  S
O1105      C1121   1.268       .  A
O1105     Zn1111   1.980       .  S
C1106      O1122   1.271   1_556  A
C1106      O1395   1.274       .  A
C1106      C1305   1.470       .  S
O1107      C1396   1.275       .  A
O1107     Cd1114   2.091       .  S
O1108      C1126   1.274       .  A
O1108     Cd1117   2.072       .  S
O1109      C1399   1.280   1_554  A
O1109     Cd1113   2.106       .  S
O1110      C1121   1.277       .  A
O1110     Cd1113   2.105       .  S
Zn1111     O1122   1.992       .  S
Zn1111     O1124   1.992       .  S
Zn1111     O1116   1.916   1_554  S
O1112      C1123   1.273       .  A
O1112     Cd1117   2.045       .  S
Cd1113     O1115   2.106       .  S
Cd1113     O1116   2.020   1_554  S
Cd1114     O1118   2.045       .  S
Cd1114     O1127   2.072       .  S
Cd1114     O1392   1.987       .  S
O1115      C1401   1.280   1_554  A
O1116     Cd1390   1.987       .  S
O1116     Cd1393   1.987       .  S
Cd1117     O1119   2.090       .  S
Cd1117     O1392   1.987       .  S
O1118      C1125   1.273       .  A
O1119      C1382   1.275       .  A
C1120      O1383   1.275       .  A
C1120      O1124   1.271   1_556  A
C1120      C1212   1.470       .  S
C1121      C1149   1.460       .  S
C1123      O1385   1.280       .  A
C1123      C1721   1.460   1_545  S
C1125      O1391   1.280       .  A
C1125      C1353   1.461       .  S
C1126      O1127   1.274       .  A
C1126      C1144   1.460       .  S
O1128      C1144   1.268       .  A
O1128     Zn1134   1.980       .  S
C1129      O1145   1.271       .  A
C1129      O1142   1.275       .  A
C1129      C1328   1.470       .  S
O1130      C1143   1.275       .  A
O1130     Cd1137   2.091       .  S
O1131      C1149   1.274       .  A
O1131     Cd1140   2.072       .  S
O1132      C1146   1.280       .  A
O1132     Cd1136   2.106       .  S
O1133      C1144   1.277       .  A
O1133     Cd1136   2.104       .  S
Zn1134     O1145   1.992       .  S
Zn1134     O1147   1.992       .  S
Zn1134     O1139   1.916       .  S
O1135      C1146   1.273       .  A
O1135     Cd1140   2.045       .  S
Cd1136     O1138   2.106       .  S
Cd1136     O1139   2.020       .  S
Cd1137     O1141   2.045       .  S
Cd1137     O1150   2.072       .  S
Cd1137     O1139   1.987       .  S
O1138      C1148   1.280       .  A
O1139     Cd1140   1.987       .  S
Cd1140     O1142   2.090       .  S
O1141      C1148   1.273       .  A
C1143      O1147   1.271       .  A
C1143      C1221   1.470       .  S
C1146      C1744   1.460   1_545  S
C1148      C1376   1.461       .  S
C1149      O1150   1.274       .  A
O1151      C1167   1.268       .  A
O1151     Zn1157   1.980       .  S
C1152      O1168   1.271       .  A
C1152      O1441   1.275       .  A
C1152      C1259   1.470       .  S
O1153      C1442   1.275       .  A
O1153     Cd1160   2.090       .  S
O1154      C1172   1.274       .  A
O1154     Cd1163   2.072       .  S
O1155      C1169   1.279       .  A
O1155     Cd1159   2.105       .  S
O1156      C1167   1.277       .  A
O1156     Cd1159   2.104       .  S
Zn1157     O1168   1.991       .  S
Zn1157     O1170   1.991       .  S
Zn1157     O1162   1.916       .  S
O1158      C1445   1.274       .  A
O1158     Cd1163   2.046       .  S
Cd1159     O1161   2.105       .  S
Cd1159     O1162   2.020       .  S
Cd1160     O1164   2.046       .  S
Cd1160     O1173   2.072       .  S
Cd1160     O1438   1.987       .  S
O1161      C1447   1.279       .  A
O1162     Cd1436   1.987       .  S
O1162     Cd1439   1.987       .  S
Cd1163     O1165   2.090       .  S
Cd1163     O1438   1.988       .  S
O1164      C1171   1.274       .  A
O1165      C1428   1.275       .  A
C1166      O1429   1.275       .  A
C1166      O1170   1.271       .  A
C1166      C1350   1.470       .  S
C1167      C1195   1.460       .  S
C1169      O1434   1.274       .  A
C1169      C1675   1.460       .  S
C1171      O1437   1.279   1_554  A
C1172      O1173   1.274       .  A
C1172      C1190   1.459       .  S
O1174      C1190   1.268       .  A
O1174     Zn1180   1.980       .  S
C1175      O1191   1.271       .  A
C1175      O1188   1.275       .  A
C1175      C1282   1.470       .  S
O1176      C1189   1.275       .  A
O1176     Cd1183   2.090       .  S
O1177      C1195   1.274       .  A
O1177     Cd1186   2.072       .  S
O1178      C1192   1.279       .  A
O1178     Cd1182   2.104       .  S
O1179      C1190   1.277       .  A
O1179     Cd1182   2.104       .  S
Zn1180     O1191   1.991       .  S
Zn1180     O1193   1.992       .  S
Zn1180     O1185   1.916       .  S
O1181      C1192   1.274       .  A
O1181     Cd1186   2.046       .  S
Cd1182     O1184   2.105       .  S
Cd1182     O1185   2.020       .  S
Cd1183     O1187   2.046       .  S
Cd1183     O1196   2.072       .  S
Cd1183     O1185   1.987       .  S
O1184      C1194   1.279       .  A
O1185     Cd1186   1.987       .  S
Cd1186     O1188   2.090       .  S
O1187      C1194   1.274       .  A
C1189      O1193   1.271       .  A
C1189      C1373   1.470       .  S
C1192      C1698   1.460       .  S
C1195      O1196   1.274       .  A
O1197      C1213   1.271   1_554  A
O1197     Zn1203   1.992       .  S
C1198      O1214   1.269       .  A
C1198      O1211   1.277       .  A
C1198      C1241   1.460       .  S
O1199      C1488   1.275       .  A
O1199     Cd1206   2.091       .  S
O1200      C1494   1.280   1_554  A
O1200     Cd1209   2.106       .  S
O1201      C1215   1.273       .  A
O1201     Cd1205   2.044       .  S
O1202      C1489   1.275       .  A
O1202     Cd1205   2.089       .  S
Zn1203     O1214   1.981       .  S
Zn1203     O1216   1.992       .  S
Zn1203     O1208   1.917   1_554  S
O1204      C1491   1.280   1_554  A
O1204     Cd1209   2.106       .  S
Cd1205     O1207   2.072       .  S
Cd1205     O1484   1.987       .  S
Cd1206     O1210   2.072       .  S
Cd1206     O1219   2.045       .  S
Cd1206     O1484   1.987       .  S
O1207      C1217   1.274       .  A
O1208     Cd1481   1.987       .  S
O1208     Cd1482   1.987       .  S
O1208     Cd1209   2.020   1_556  S
Cd1209     O1211   2.104       .  S
O1210      C1217   1.274       .  A
C1212      O1475   1.275       .  A
C1212      O1216   1.271   1_556  A
C1213      O1478   1.275       .  A
C1213      C1304   1.470       .  S
C1215      O1480   1.280       .  A
C1217      C1236   1.460       .  S
C1218      O1476   1.280       .  A
C1218      O1219   1.273       .  A
C1218      C1264   1.461       .  S
O1220      C1236   1.269       .  A
O1220     Zn1226   1.980       .  S
C1221      O1237   1.271       .  A
C1221      O1234   1.275       .  A
O1222      C1235   1.275       .  A
O1222     Cd1229   2.089       .  S
O1223      C1241   1.274       .  A
O1223     Cd1232   2.072       .  S
O1224      C1238   1.280       .  A
O1224     Cd1228   2.106       .  S
O1225      C1236   1.277       .  A
O1225     Cd1228   2.104       .  S
Zn1226     O1237   1.992       .  S
Zn1226     O1239   1.992       .  S
Zn1226     O1231   1.917       .  S
O1227      C1238   1.273       .  A
O1227     Cd1232   2.045       .  S
Cd1228     O1230   2.106       .  S
Cd1228     O1231   2.020       .  S
Cd1229     O1233   2.045       .  S
Cd1229     O1242   2.072       .  S
Cd1229     O1231   1.987       .  S
O1230      C1240   1.280       .  A
O1231     Cd1232   1.987       .  S
Cd1232     O1234   2.090       .  S
O1233      C1240   1.273       .  A
C1235      O1239   1.271       .  A
C1235      C1327   1.470       .  S
C1238      C1287   1.461       .  S
C1241      O1242   1.274       .  A
O1243      C1259   1.271       .  A
O1243     Zn1249   1.992       .  S
C1244      O1260   1.268       .  A
C1244      O1257   1.277       .  A
C1244      C1286   1.460       .  S
O1245      C1534   1.275       .  A
O1245     Cd1252   2.091       .  S
O1246      C1264   1.280       .  A
O1246     Cd1255   2.106       .  S
O1247      C1537   1.273       .  A
O1247     Cd1251   2.045       .  S
O1248      C1535   1.274       .  A
O1248     Cd1251   2.090       .  S
Zn1249     O1260   1.980       .  S
Zn1249     O1262   1.992       .  S
Zn1249     O1254   1.916       .  S
O1250      C1261   1.280       .  A
O1250     Cd1255   2.106       .  S
Cd1251     O1253   2.072       .  S
Cd1251     O1530   1.987       .  S
Cd1252     O1256   2.072       .  S
Cd1252     O1265   2.045       .  S
Cd1252     O1530   1.987       .  S
O1253      C1263   1.274       .  A
O1254     Cd1527   1.987       .  S
O1254     Cd1528   1.987       .  S
O1254     Cd1255   2.020       .  S
Cd1255     O1257   2.104       .  S
O1256      C1263   1.274       .  A
C1258      O1521   1.275       .  A
C1258      O1262   1.271       .  A
C1258      C1351   1.470       .  S
C1259      O1524   1.275       .  A
C1261      O1523   1.273       .  A
C1261      C1859   1.460       .  S
C1263      C1267   1.460       .  S
C1264      O1541   1.273       .  A
O1265      C1540   1.273       .  A
O1266      C1282   1.271       .  A
O1266     Zn1272   1.992       .  S
C1267      O1283   1.268       .  A
C1267      O1280   1.277       .  A
O1268      C1281   1.275       .  A
O1268     Cd1275   2.091       .  S
O1269      C1287   1.280       .  A
O1269     Cd1278   2.106       .  S
O1270      C1284   1.273       .  A
O1270     Cd1274   2.045       .  S
O1271      C1282   1.275       .  A
O1271     Cd1274   2.090       .  S
Zn1272     O1283   1.980       .  S
Zn1272     O1285   1.992       .  S
Zn1272     O1277   1.916       .  S
O1273      C1284   1.280       .  A
O1273     Cd1278   2.106       .  S
Cd1274     O1276   2.072       .  S
Cd1274     O1277   1.987       .  S
Cd1275     O1279   2.072       .  S
Cd1275     O1288   2.045       .  S
Cd1275     O1277   1.987       .  S
O1276      C1286   1.274       .  A
O1277     Cd1278   2.020       .  S
Cd1278     O1280   2.105       .  S
O1279      C1286   1.274       .  A
C1281      O1285   1.271       .  A
C1281      C1374   1.470       .  S
C1284      C1882   1.460       .  S
C1287      O1288   1.273       .  A
O1289      C1305   1.271   1_554  A
O1289     Zn1295   1.991       .  S
C1290      O1306   1.268       .  A
C1290      O1303   1.277       .  A
C1290      C1332   1.459       .  S
O1291      C1580   1.275       .  A
O1291     Cd1298   2.090       .  S
O1292      C1586   1.279   1_554  A
O1292     Cd1301   2.105       .  S
O1293      C1307   1.274       .  A
O1293     Cd1297   2.046       .  S
O1294      C1581   1.275       .  A
O1294     Cd1297   2.090       .  S
Zn1295     O1306   1.980       .  S
Zn1295     O1308   1.992       .  S
Zn1295     O1300   1.917   1_554  S
O1296      C1583   1.279   1_554  A
O1296     Cd1301   2.104       .  S
Cd1297     O1299   2.072       .  S
Cd1297     O1576   1.987       .  S
Cd1298     O1302   2.072       .  S
Cd1298     O1311   2.046       .  S
Cd1298     O1576   1.987       .  S
O1299      C1309   1.274       .  A
O1300     Cd1573   1.987       .  S
O1300     Cd1574   1.987       .  S
O1300     Cd1301   2.020   1_556  S
Cd1301     O1303   2.104       .  S
O1302      C1309   1.274       .  A
C1304      O1567   1.275       .  A
C1304      O1308   1.271   1_556  A
C1305      O1570   1.275       .  A
C1307      O1572   1.279       .  A
C1307      C1813   1.460   1_545  S
C1309      C1313   1.459       .  S
C1310      O1568   1.279       .  A
C1310      O1311   1.273       .  A
O1312      C1328   1.271       .  A
O1312     Zn1318   1.991       .  S
C1313      O1329   1.268       .  A
C1313      O1326   1.277       .  A
O1314      C1327   1.275       .  A
O1314     Cd1321   2.090       .  S
O1315      C1333   1.279       .  A
O1315     Cd1324   2.105       .  S
O1316      C1330   1.274       .  A
O1316     Cd1320   2.046       .  S
O1317      C1328   1.275       .  A
O1317     Cd1320   2.090       .  S
Zn1318     O1329   1.980       .  S
Zn1318     O1331   1.992       .  S
Zn1318     O1323   1.917       .  S
O1319      C1330   1.279       .  A
O1319     Cd1324   2.105       .  S
Cd1320     O1322   2.072       .  S
Cd1320     O1323   1.987       .  S
Cd1321     O1325   2.072       .  S
Cd1321     O1334   2.046       .  S
Cd1321     O1323   1.987       .  S
O1322      C1332   1.274       .  A
O1323     Cd1324   2.020       .  S
Cd1324     O1326   2.104       .  S
O1325      C1332   1.274       .  A
C1327      O1331   1.271       .  A
C1330      C1836   1.460   1_545  S
C1333      O1334   1.273       .  A
O1335      C1351   1.271       .  A
O1335     Zn1341   1.993       .  S
C1336      O1352   1.269       .  A
C1336      O1349   1.277       .  A
C1336      C1378   1.460       .  S
O1337      C1626   1.275       .  A
O1337     Cd1344   2.089       .  S
O1338      C1356   1.280       .  A
O1338     Cd1347   2.106       .  S
O1339      C1629   1.273       .  A
O1339     Cd1343   2.045       .  S
O1340      C1627   1.275       .  A
O1340     Cd1343   2.090       .  S
Zn1341     O1352   1.981       .  S
Zn1341     O1354   1.993       .  S
Zn1341     O1346   1.917       .  S
O1342      C1353   1.280       .  A
O1342     Cd1347   2.107       .  S
Cd1343     O1345   2.072       .  S
Cd1343     O1622   1.987       .  S
Cd1344     O1348   2.072       .  S
Cd1344     O1357   2.044       .  S
Cd1344     O1622   1.987       .  S
O1345      C1355   1.274       .  A
O1346     Cd1619   1.987       .  S
O1346     Cd1620   1.987       .  S
O1346     Cd1347   2.020       .  S
Cd1347     O1349   2.104       .  S
O1348      C1355   1.274       .  A
C1350      O1613   1.274       .  A
C1350      O1354   1.271       .  A
C1351      O1616   1.275       .  A
C1353      O1615   1.273       .  A
C1355      C1359   1.460       .  S
C1356      O1633   1.273       .  A
O1357      C1632   1.273       .  A
O1358      C1374   1.271       .  A
O1358     Zn1364   1.993       .  S
C1359      O1375   1.269       .  A
C1359      O1372   1.277       .  A
O1360      C1373   1.274       .  A
O1360     Cd1367   2.089       .  S
O1361      C1379   1.280       .  A
O1361     Cd1370   2.106       .  S
O1362      C1376   1.273       .  A
O1362     Cd1366   2.045       .  S
O1363      C1374   1.275       .  A
O1363     Cd1366   2.090       .  S
Zn1364     O1375   1.981       .  S
Zn1364     O1377   1.993       .  S
Zn1364     O1369   1.917       .  S
O1365      C1376   1.280       .  A
O1365     Cd1370   2.107       .  S
Cd1366     O1368   2.072       .  S
Cd1366     O1369   1.987       .  S
Cd1367     O1371   2.072       .  S
Cd1367     O1380   2.044       .  S
Cd1367     O1369   1.987       .  S
O1368      C1378   1.274       .  A
O1369     Cd1370   2.020       .  S
Cd1370     O1372   2.104       .  S
O1371      C1378   1.274       .  A
C1373      O1377   1.271       .  A
C1379      O1380   1.273       .  A
O1381      C1397   1.268       .  A
O1381     Zn1387   1.980       .  S
C1382      O1398   1.271       .  A
C1382      C1581   1.470       .  S
O1383     Cd1390   2.091       .  S
O1384      C1402   1.274       .  A
O1384     Cd1393   2.072       .  S
O1385     Cd1389   2.106       .  S
O1386      C1397   1.277       .  A
O1386     Cd1389   2.105       .  S
Zn1387     O1398   1.992       .  S
Zn1387     O1400   1.992       .  S
Zn1387     O1392   1.916       .  S
O1388      C1399   1.273       .  A
O1388     Cd1393   2.045       .  S
Cd1389     O1391   2.106       .  S
Cd1389     O1392   2.020       .  S
Cd1390     O1394   2.045       .  S
Cd1390     O1403   2.072       .  S
Cd1393     O1395   2.090       .  S
O1394      C1401   1.273       .  A
C1396      O1400   1.271       .  A
C1396      C1488   1.470       .  S
C1397      C1425   1.460       .  S
C1399      C1997   1.460   1_546  S
C1401      C1629   1.461   1_556  S
C1402      O1403   1.274       .  A
C1402      C1420   1.460       .  S
O1404      C1420   1.268       .  A
O1404     Zn1410   1.980       .  S
C1405      O1421   1.271       .  A
C1405      O1418   1.275       .  A
C1405      C1604   1.470       .  S
O1406      C1419   1.275       .  A
O1406     Cd1413   2.091       .  S
O1407      C1425   1.274       .  A
O1407     Cd1416   2.072       .  S
O1408      C1422   1.280       .  A
O1408     Cd1412   2.106       .  S
O1409      C1420   1.277       .  A
O1409     Cd1412   2.104       .  S
Zn1410     O1421   1.992       .  S
Zn1410     O1423   1.992       .  S
Zn1410     O1415   1.916       .  S
O1411      C1422   1.273       .  A
O1411     Cd1416   2.045       .  S
Cd1412     O1414   2.106       .  S
Cd1412     O1415   2.020       .  S
Cd1413     O1417   2.045       .  S
Cd1413     O1426   2.072       .  S
Cd1413     O1415   1.987       .  S
O1414      C1424   1.280       .  A
O1415     Cd1416   1.987       .  S
Cd1416     O1418   2.090       .  S
O1417      C1424   1.273       .  A
C1419      O1423   1.271       .  A
C1419      C1497   1.470       .  S
C1422      C2020   1.460   1_545  S
C1424      C1652   1.461       .  S
C1425      O1426   1.274       .  A
O1427      C1443   1.268       .  A
O1427     Zn1433   1.980       .  S
C1428      O1444   1.271   1_554  A
C1428      C1535   1.470       .  S
O1429     Cd1436   2.090       .  S
O1430      C1448   1.274       .  A
O1430     Cd1439   2.072       .  S
O1431      C1445   1.279   1_556  A
O1431     Cd1435   2.105       .  S
O1432      C1443   1.277       .  A
O1432     Cd1435   2.104       .  S
Zn1433     O1444   1.991       .  S
Zn1433     O1446   1.991       .  S
Zn1433     O1438   1.916   1_556  S
O1434     Cd1439   2.046       .  S
Cd1435     O1437   2.105       .  S
Cd1435     O1438   2.020   1_556  S
Cd1436     O1440   2.046       .  S
Cd1436     O1449   2.072       .  S
Cd1439     O1441   2.090       .  S
O1440      C1447   1.273       .  A
C1442      O1446   1.271   1_554  A
C1442      C1626   1.470       .  S
C1443      C1471   1.460       .  S
C1445      C1951   1.460   1_554  S
C1448      O1449   1.274       .  A
C1448      C1466   1.459       .  S
O1450      C1466   1.268       .  A
O1450     Zn1456   1.980       .  S
C1451      O1467   1.271       .  A
C1451      O1464   1.275       .  A
C1451      C1558   1.470       .  S
O1452      C1465   1.275       .  A
O1452     Cd1459   2.090       .  S
O1453      C1471   1.274       .  A
O1453     Cd1462   2.072       .  S
O1454      C1468   1.279       .  A
O1454     Cd1458   2.104       .  S
O1455      C1466   1.277       .  A
O1455     Cd1458   2.104       .  S
Zn1456     O1467   1.991       .  S
Zn1456     O1469   1.991       .  S
Zn1456     O1461   1.916       .  S
O1457      C1468   1.274       .  A
O1457     Cd1462   2.046       .  S
Cd1458     O1460   2.105       .  S
Cd1458     O1461   2.020       .  S
Cd1459     O1463   2.046       .  S
Cd1459     O1472   2.072       .  S
Cd1459     O1461   1.987       .  S
O1460      C1470   1.279       .  A
O1461     Cd1462   1.987       .  S
Cd1462     O1464   2.090       .  S
O1463      C1470   1.274       .  A
C1465      O1469   1.271       .  A
C1465      C1649   1.470       .  S
C1468      C1974   1.460       .  S
C1471      O1472   1.274       .  A
O1473      C1489   1.271       .  A
O1473     Zn1479   1.992       .  S
C1474      O1490   1.269       .  A
C1474      O1487   1.277       .  A
C1474      C1517   1.460       .  S
O1475     Cd1482   2.091       .  S
O1476     Cd1485   2.106       .  S
O1477      C1491   1.273       .  A
O1477     Cd1481   2.044       .  S
O1478     Cd1481   2.089       .  S
Zn1479     O1490   1.981       .  S
Zn1479     O1492   1.992       .  S
Zn1479     O1484   1.917       .  S
O1480     Cd1485   2.106       .  S
Cd1481     O1483   2.072       .  S
Cd1482     O1486   2.072       .  S
Cd1482     O1495   2.045       .  S
O1483      C1493   1.274       .  A
O1484     Cd1485   2.020       .  S
Cd1485     O1487   2.104       .  S
O1486      C1493   1.274       .  A
C1488      O1492   1.271       .  A
C1489      C1580   1.470       .  S
C1493      C1512   1.460       .  S
C1494      O1495   1.273       .  A
C1494      C1540   1.461   1_556  S
O1496      C1512   1.269       .  A
O1496     Zn1502   1.980       .  S
C1497      O1513   1.271       .  A
C1497      O1510   1.275       .  A
O1498      C1511   1.275       .  A
O1498     Cd1505   2.089       .  S
O1499      C1517   1.274       .  A
O1499     Cd1508   2.072       .  S
O1500      C1514   1.280       .  A
O1500     Cd1504   2.106       .  S
O1501      C1512   1.277       .  A
O1501     Cd1504   2.104       .  S
Zn1502     O1513   1.992       .  S
Zn1502     O1515   1.992       .  S
Zn1502     O1507   1.917       .  S
O1503      C1514   1.273       .  A
O1503     Cd1508   2.045       .  S
Cd1504     O1506   2.106       .  S
Cd1504     O1507   2.020       .  S
Cd1505     O1509   2.045       .  S
Cd1505     O1518   2.072       .  S
Cd1505     O1507   1.987       .  S
O1506      C1516   1.280       .  A
O1507     Cd1508   1.987       .  S
Cd1508     O1510   2.090       .  S
O1509      C1516   1.273       .  A
C1511      O1515   1.271       .  A
C1511      C1603   1.470       .  S
C1514      C1563   1.461       .  S
C1517      O1518   1.274       .  A
O1519      C1535   1.272   1_556  A
O1519     Zn1525   1.992       .  S
C1520      O1536   1.268       .  A
C1520      O1533   1.277       .  A
C1520      C1562   1.460       .  S
O1521     Cd1528   2.091       .  S
O1522      C1540   1.280   1_556  A
O1522     Cd1531   2.106       .  S
O1523     Cd1527   2.045       .  S
O1524     Cd1527   2.090       .  S
Zn1525     O1536   1.980       .  S
Zn1525     O1538   1.992       .  S
Zn1525     O1530   1.916   1_556  S
O1526      C1537   1.280   1_556  A
O1526     Cd1531   2.106       .  S
Cd1527     O1529   2.072       .  S
Cd1528     O1532   2.072       .  S
Cd1528     O1541   2.045       .  S
O1529      C1539   1.274       .  A
O1530     Cd1531   2.020   1_554  S
Cd1531     O1533   2.104       .  S
O1532      C1539   1.274       .  A
C1534      O1538   1.271   1_554  A
C1534      C1627   1.470       .  S
C1537      C2135   1.460   1_554  S
C1539      C1543   1.460       .  S
O1542      C1558   1.271       .  A
O1542     Zn1548   1.992       .  S
C1543      O1559   1.268       .  A
C1543      O1556   1.277       .  A
O1544      C1557   1.275       .  A
O1544     Cd1551   2.091       .  S
O1545      C1563   1.280       .  A
O1545     Cd1554   2.106       .  S
O1546      C1560   1.273       .  A
O1546     Cd1550   2.045       .  S
O1547      C1558   1.275       .  A
O1547     Cd1550   2.090       .  S
Zn1548     O1559   1.980       .  S
Zn1548     O1561   1.992       .  S
Zn1548     O1553   1.916       .  S
O1549      C1560   1.280       .  A
O1549     Cd1554   2.106       .  S
Cd1550     O1552   2.072       .  S
Cd1550     O1553   1.987       .  S
Cd1551     O1555   2.072       .  S
Cd1551     O1564   2.045       .  S
Cd1551     O1553   1.987       .  S
O1552      C1562   1.274       .  A
O1553     Cd1554   2.020       .  S
Cd1554     O1556   2.105       .  S
O1555      C1562   1.274       .  A
C1557      O1561   1.271       .  A
C1557      C1650   1.470       .  S
C1560      C2158   1.460       .  S
C1563      O1564   1.273       .  A
O1565      C1581   1.271       .  A
O1565     Zn1571   1.991       .  S
C1566      O1582   1.268       .  A
C1566      O1579   1.277       .  A
C1566      C1608   1.459       .  S
O1567     Cd1574   2.090       .  S
O1568     Cd1577   2.105       .  S
O1569      C1583   1.274       .  A
O1569     Cd1573   2.046       .  S
O1570     Cd1573   2.090       .  S
Zn1571     O1582   1.980       .  S
Zn1571     O1584   1.992       .  S
Zn1571     O1576   1.917       .  S
O1572     Cd1577   2.104       .  S
Cd1573     O1575   2.072       .  S
Cd1574     O1578   2.072       .  S
Cd1574     O1587   2.046       .  S
O1575      C1585   1.274       .  A
O1576     Cd1577   2.020       .  S
Cd1577     O1579   2.104       .  S
O1578      C1585   1.274       .  A
C1580      O1584   1.271       .  A
C1583      C2089   1.460   1_546  S
C1585      C1589   1.459       .  S
C1586      O1587   1.273       .  A
O1588      C1604   1.271       .  A
O1588     Zn1594   1.991       .  S
C1589      O1605   1.268       .  A
C1589      O1602   1.277       .  A
O1590      C1603   1.275       .  A
O1590     Cd1597   2.090       .  S
O1591      C1609   1.279       .  A
O1591     Cd1600   2.105       .  S
O1592      C1606   1.274       .  A
O1592     Cd1596   2.046       .  S
O1593      C1604   1.275       .  A
O1593     Cd1596   2.090       .  S
Zn1594     O1605   1.980       .  S
Zn1594     O1607   1.992       .  S
Zn1594     O1599   1.917       .  S
O1595      C1606   1.279       .  A
O1595     Cd1600   2.105       .  S
Cd1596     O1598   2.072       .  S
Cd1596     O1599   1.987       .  S
Cd1597     O1601   2.072       .  S
Cd1597     O1610   2.046       .  S
Cd1597     O1599   1.987       .  S
O1598      C1608   1.274       .  A
O1599     Cd1600   2.020       .  S
Cd1600     O1602   2.104       .  S
O1601      C1608   1.274       .  A
C1603      O1607   1.271       .  A
C1606      C2112   1.460   1_545  S
C1609      O1610   1.273       .  A
O1611      C1627   1.271   1_556  A
O1611     Zn1617   1.993       .  S
C1612      O1628   1.269       .  A
C1612      O1625   1.277       .  A
C1612      C1654   1.460       .  S
O1613     Cd1620   2.089       .  S
O1614      C1632   1.280   1_556  A
O1614     Cd1623   2.106       .  S
O1615     Cd1619   2.045       .  S
O1616     Cd1619   2.090       .  S
Zn1617     O1628   1.981       .  S
Zn1617     O1630   1.993       .  S
Zn1617     O1622   1.917   1_556  S
O1618      C1629   1.280   1_556  A
O1618     Cd1623   2.107       .  S
Cd1619     O1621   2.072       .  S
Cd1620     O1624   2.072       .  S
Cd1620     O1633   2.044       .  S
O1621      C1631   1.274       .  A
O1622     Cd1623   2.020   1_554  S
Cd1623     O1625   2.104       .  S
O1624      C1631   1.274       .  A
C1626      O1630   1.271   1_554  A
C1631      C1635   1.460       .  S
O1634      C1650   1.271       .  A
O1634     Zn1640   1.993       .  S
C1635      O1651   1.269       .  A
C1635      O1648   1.277       .  A
O1636      C1649   1.274       .  A
O1636     Cd1643   2.089       .  S
O1637      C1655   1.280       .  A
O1637     Cd1646   2.106       .  S
O1638      C1652   1.273       .  A
O1638     Cd1642   2.045       .  S
O1639      C1650   1.275       .  A
O1639     Cd1642   2.090       .  S
Zn1640     O1651   1.981       .  S
Zn1640     O1653   1.993       .  S
Zn1640     O1645   1.917       .  S
O1641      C1652   1.280       .  A
O1641     Cd1646   2.107       .  S
Cd1642     O1644   2.072       .  S
Cd1642     O1645   1.987       .  S
Cd1643     O1647   2.072       .  S
Cd1643     O1656   2.044       .  S
Cd1643     O1645   1.987       .  S
O1644      C1654   1.274       .  A
O1645     Cd1646   2.020       .  S
Cd1646     O1648   2.104       .  S
O1647      C1654   1.274       .  A
C1649      O1653   1.271       .  A
C1655      O1656   1.273       .  A
O1657      C1673   1.268       .  A
O1657     Zn1663   1.980       .  S
C1658      O1674   1.271   1_556  A
C1658      O1947   1.274       .  A
C1658      C1857   1.470       .  S
O1659      C1948   1.275       .  A
O1659     Cd1666   2.091       .  S
O1660      C1678   1.274       .  A
O1660     Cd1669   2.072       .  S
O1661      C1951   1.280   1_554  A
O1661     Cd1665   2.106       .  S
O1662      C1673   1.277       .  A
O1662     Cd1665   2.105       .  S
Zn1663     O1674   1.992       .  S
Zn1663     O1676   1.992       .  S
Zn1663     O1668   1.916   1_554  S
O1664      C1675   1.273       .  A
O1664     Cd1669   2.045       .  S
Cd1665     O1667   2.106       .  S
Cd1665     O1668   2.020   1_554  S
Cd1666     O1670   2.045       .  S
Cd1666     O1679   2.072       .  S
Cd1666     O1944   1.987       .  S
O1667      C1953   1.280   1_554  A
O1668     Cd1942   1.987       .  S
O1668     Cd1945   1.987       .  S
Cd1669     O1671   2.090       .  S
Cd1669     O1944   1.987       .  S
O1670      C1677   1.273       .  A
O1671      C1934   1.275       .  A
C1672      O1935   1.275       .  A
C1672      O1676   1.271   1_556  A
C1672      C1764   1.470       .  S
C1673      C1701   1.460       .  S
C1675      O1937   1.280       .  A
C1677      O1943   1.280       .  A
C1677      C1905   1.461       .  S
C1678      O1679   1.274       .  A
C1678      C1696   1.460       .  S
O1680      C1696   1.268       .  A
O1680     Zn1686   1.980       .  S
C1681      O1697   1.271       .  A
C1681      O1694   1.275       .  A
C1681      C1880   1.470       .  S
O1682      C1695   1.275       .  A
O1682     Cd1689   2.091       .  S
O1683      C1701   1.274       .  A
O1683     Cd1692   2.072       .  S
O1684      C1698   1.280       .  A
O1684     Cd1688   2.106       .  S
O1685      C1696   1.277       .  A
O1685     Cd1688   2.104       .  S
Zn1686     O1697   1.992       .  S
Zn1686     O1699   1.992       .  S
Zn1686     O1691   1.916       .  S
O1687      C1698   1.273       .  A
O1687     Cd1692   2.045       .  S
Cd1688     O1690   2.106       .  S
Cd1688     O1691   2.020       .  S
Cd1689     O1693   2.045       .  S
Cd1689     O1702   2.072       .  S
Cd1689     O1691   1.987       .  S
O1690      C1700   1.280       .  A
O1691     Cd1692   1.987       .  S
Cd1692     O1694   2.090       .  S
O1693      C1700   1.273       .  A
C1695      O1699   1.271       .  A
C1695      C1773   1.470       .  S
C1700      C1928   1.461       .  S
C1701      O1702   1.274       .  A
O1703      C1719   1.268       .  A
O1703     Zn1709   1.980       .  S
C1704      O1720   1.271       .  A
C1704      O1993   1.275       .  A
C1704      C1811   1.470       .  S
O1705      C1994   1.275       .  A
O1705     Cd1712   2.090       .  S
O1706      C1724   1.274       .  A
O1706     Cd1715   2.072       .  S
O1707      C1721   1.279       .  A
O1707     Cd1711   2.105       .  S
O1708      C1719   1.277       .  A
O1708     Cd1711   2.104       .  S
Zn1709     O1720   1.991       .  S
Zn1709     O1722   1.991       .  S
Zn1709     O1714   1.916       .  S
O1710      C1997   1.274       .  A
O1710     Cd1715   2.046       .  S
Cd1711     O1713   2.105       .  S
Cd1711     O1714   2.020       .  S
Cd1712     O1716   2.046       .  S
Cd1712     O1725   2.072       .  S
Cd1712     O1990   1.987       .  S
O1713      C1999   1.279       .  A
O1714     Cd1988   1.987       .  S
O1714     Cd1991   1.987       .  S
Cd1715     O1717   2.090       .  S
Cd1715     O1990   1.988       .  S
O1716      C1723   1.274       .  A
O1717      C1980   1.275       .  A
C1718      O1981   1.275       .  A
C1718      O1722   1.271       .  A
C1718      C1902   1.470       .  S
C1719      C1747   1.460       .  S
C1721      O1986   1.274       .  A
C1723      O1989   1.279   1_554  A
C1724      O1725   1.274       .  A
C1724      C1742   1.459       .  S
O1726      C1742   1.268       .  A
O1726     Zn1732   1.980       .  S
C1727      O1743   1.271       .  A
C1727      O1740   1.275       .  A
C1727      C1834   1.470       .  S
O1728      C1741   1.275       .  A
O1728     Cd1735   2.090       .  S
O1729      C1747   1.274       .  A
O1729     Cd1738   2.072       .  S
O1730      C1744   1.279       .  A
O1730     Cd1734   2.104       .  S
O1731      C1742   1.277       .  A
O1731     Cd1734   2.104       .  S
Zn1732     O1743   1.991       .  S
Zn1732     O1745   1.992       .  S
Zn1732     O1737   1.916       .  S
O1733      C1744   1.274       .  A
O1733     Cd1738   2.046       .  S
Cd1734     O1736   2.105       .  S
Cd1734     O1737   2.020       .  S
Cd1735     O1739   2.046       .  S
Cd1735     O1748   2.072       .  S
Cd1735     O1737   1.987       .  S
O1736      C1746   1.279       .  A
O1737     Cd1738   1.987       .  S
Cd1738     O1740   2.090       .  S
O1739      C1746   1.274       .  A
C1741      O1745   1.271       .  A
C1741      C1925   1.470       .  S
C1747      O1748   1.274       .  A
O1749      C1765   1.271   1_554  A
O1749     Zn1755   1.992       .  S
C1750      O1766   1.269       .  A
C1750      O1763   1.277       .  A
C1750      C1793   1.460       .  S
O1751      C2040   1.275       .  A
O1751     Cd1758   2.091       .  S
O1752      C2046   1.280   1_554  A
O1752     Cd1761   2.106       .  S
O1753      C1767   1.273       .  A
O1753     Cd1757   2.044       .  S
O1754      C2041   1.274       .  A
O1754     Cd1757   2.089       .  S
Zn1755     O1766   1.981       .  S
Zn1755     O1768   1.992       .  S
Zn1755     O1760   1.917   1_554  S
O1756      C2043   1.280   1_554  A
O1756     Cd1761   2.106       .  S
Cd1757     O1759   2.072       .  S
Cd1757     O2036   1.987       .  S
Cd1758     O1762   2.072       .  S
Cd1758     O1771   2.045       .  S
Cd1758     O2036   1.987       .  S
O1759      C1769   1.274       .  A
O1760     Cd2033   1.987       .  S
O1760     Cd2034   1.987       .  S
O1760     Cd1761   2.020   1_556  S
Cd1761     O1763   2.104       .  S
O1762      C1769   1.274       .  A
C1764      O2027   1.275       .  A
C1764      O1768   1.271   1_556  A
C1765      O2030   1.275       .  A
C1765      C1856   1.470       .  S
C1767      O2032   1.280       .  A
C1769      C1788   1.460       .  S
C1770      O2028   1.280       .  A
C1770      O1771   1.273       .  A
C1770      C1816   1.461       .  S
O1772      C1788   1.269       .  A
O1772     Zn1778   1.980       .  S
C1773      O1789   1.271       .  A
C1773      O1786   1.275       .  A
O1774      C1787   1.275       .  A
O1774     Cd1781   2.089       .  S
O1775      C1793   1.274       .  A
O1775     Cd1784   2.072       .  S
O1776      C1790   1.280       .  A
O1776     Cd1780   2.106       .  S
O1777      C1788   1.277       .  A
O1777     Cd1780   2.104       .  S
Zn1778     O1789   1.992       .  S
Zn1778     O1791   1.992       .  S
Zn1778     O1783   1.917       .  S
O1779      C1790   1.273       .  A
O1779     Cd1784   2.045       .  S
Cd1780     O1782   2.106       .  S
Cd1780     O1783   2.020       .  S
Cd1781     O1785   2.045       .  S
Cd1781     O1794   2.072       .  S
Cd1781     O1783   1.987       .  S
O1782      C1792   1.280       .  A
O1783     Cd1784   1.987       .  S
Cd1784     O1786   2.090       .  S
O1785      C1792   1.273       .  A
C1787      O1791   1.271       .  A
C1787      C1879   1.470       .  S
C1790      C1839   1.461       .  S
C1793      O1794   1.274       .  A
O1795      C1811   1.271       .  A
O1795     Zn1801   1.992       .  S
C1796      O1812   1.268       .  A
C1796      O1809   1.277       .  A
C1796      C1838   1.460       .  S
O1797      C2086   1.275       .  A
O1797     Cd1804   2.091       .  S
O1798      C1816   1.280       .  A
O1798     Cd1807   2.106       .  S
O1799      C2089   1.273       .  A
O1799     Cd1803   2.045       .  S
O1800      C2087   1.274       .  A
O1800     Cd1803   2.090       .  S
Zn1801     O1812   1.980       .  S
Zn1801     O1814   1.992       .  S
Zn1801     O1806   1.916       .  S
O1802      C1813   1.280       .  A
O1802     Cd1807   2.106       .  S
Cd1803     O1805   2.072       .  S
Cd1803     O2082   1.987       .  S
Cd1804     O1808   2.072       .  S
Cd1804     O1817   2.045       .  S
Cd1804     O2082   1.987       .  S
O1805      C1815   1.274       .  A
O1806     Cd2079   1.987       .  S
O1806     Cd2080   1.987       .  S
O1806     Cd1807   2.020       .  S
Cd1807     O1809   2.104       .  S
O1808      C1815   1.274       .  A
C1810      O2073   1.275       .  A
C1810      O1814   1.271       .  A
C1810      C1903   1.470       .  S
C1811      O2076   1.275       .  A
C1813      O2075   1.273       .  A
C1815      C1819   1.460       .  S
C1816      O2093   1.273       .  A
O1817      C2092   1.273       .  A
O1818      C1834   1.271       .  A
O1818     Zn1824   1.992       .  S
C1819      O1835   1.268       .  A
C1819      O1832   1.277       .  A
O1820      C1833   1.275       .  A
O1820     Cd1827   2.091       .  S
O1821      C1839   1.280       .  A
O1821     Cd1830   2.106       .  S
O1822      C1836   1.273       .  A
O1822     Cd1826   2.045       .  S
O1823      C1834   1.275       .  A
O1823     Cd1826   2.090       .  S
Zn1824     O1835   1.980       .  S
Zn1824     O1837   1.992       .  S
Zn1824     O1829   1.916       .  S
O1825      C1836   1.280       .  A
O1825     Cd1830   2.106       .  S
Cd1826     O1828   2.072       .  S
Cd1826     O1829   1.987       .  S
Cd1827     O1831   2.072       .  S
Cd1827     O1840   2.045       .  S
Cd1827     O1829   1.987       .  S
O1828      C1838   1.274       .  A
O1829     Cd1830   2.020       .  S
Cd1830     O1832   2.105       .  S
O1831      C1838   1.274       .  A
C1833      O1837   1.271       .  A
C1833      C1926   1.470       .  S
C1839      O1840   1.273       .  A
O1841      C1857   1.271   1_554  A
O1841     Zn1847   1.991       .  S
C1842      O1858   1.268       .  A
C1842      O1855   1.277       .  A
C1842      C1884   1.459       .  S
O1843      C2132   1.275       .  A
O1843     Cd1850   2.090       .  S
O1844      C2138   1.279   1_554  A
O1844     Cd1853   2.105       .  S
O1845      C1859   1.274       .  A
O1845     Cd1849   2.046       .  S
O1846      C2133   1.275       .  A
O1846     Cd1849   2.090       .  S
Zn1847     O1858   1.980       .  S
Zn1847     O1860   1.992       .  S
Zn1847     O1852   1.917   1_554  S
O1848      C2135   1.279   1_554  A
O1848     Cd1853   2.104       .  S
Cd1849     O1851   2.072       .  S
Cd1849     O2128   1.987       .  S
Cd1850     O1854   2.072       .  S
Cd1850     O1863   2.046       .  S
Cd1850     O2128   1.987       .  S
O1851      C1861   1.274       .  A
O1852     Cd2125   1.987       .  S
O1852     Cd2126   1.987       .  S
O1852     Cd1853   2.020   1_556  S
Cd1853     O1855   2.104       .  S
O1854      C1861   1.274       .  A
C1856      O2119   1.275       .  A
C1856      O1860   1.271   1_556  A
C1857      O2122   1.275       .  A
C1859      O2124   1.279       .  A
C1861      C1865   1.459       .  S
C1862      O2120   1.279       .  A
C1862      O1863   1.273       .  A
O1864      C1880   1.271       .  A
O1864     Zn1870   1.991       .  S
C1865      O1881   1.268       .  A
C1865      O1878   1.277       .  A
O1866      C1879   1.275       .  A
O1866     Cd1873   2.090       .  S
O1867      C1885   1.279       .  A
O1867     Cd1876   2.105       .  S
O1868      C1882   1.274       .  A
O1868     Cd1872   2.046       .  S
O1869      C1880   1.275       .  A
O1869     Cd1872   2.090       .  S
Zn1870     O1881   1.980       .  S
Zn1870     O1883   1.992       .  S
Zn1870     O1875   1.917       .  S
O1871      C1882   1.279       .  A
O1871     Cd1876   2.105       .  S
Cd1872     O1874   2.072       .  S
Cd1872     O1875   1.987       .  S
Cd1873     O1877   2.072       .  S
Cd1873     O1886   2.046       .  S
Cd1873     O1875   1.987       .  S
O1874      C1884   1.274       .  A
O1875     Cd1876   2.020       .  S
Cd1876     O1878   2.104       .  S
O1877      C1884   1.274       .  A
C1879      O1883   1.271       .  A
C1885      O1886   1.273       .  A
O1887      C1903   1.271       .  A
O1887     Zn1893   1.993       .  S
C1888      O1904   1.269       .  A
C1888      O1901   1.277       .  A
C1888      C1930   1.460       .  S
O1889      C2178   1.275       .  A
O1889     Cd1896   2.089       .  S
O1890      C1908   1.280       .  A
O1890     Cd1899   2.106       .  S
O1891      C2181   1.273       .  A
O1891     Cd1895   2.045       .  S
O1892      C2179   1.275       .  A
O1892     Cd1895   2.090       .  S
Zn1893     O1904   1.981       .  S
Zn1893     O1906   1.993       .  S
Zn1893     O1898   1.917       .  S
O1894      C1905   1.280       .  A
O1894     Cd1899   2.107       .  S
Cd1895     O1897   2.072       .  S
Cd1895     O2174   1.987       .  S
Cd1896     O1900   2.072       .  S
Cd1896     O1909   2.044       .  S
Cd1896     O2174   1.987       .  S
O1897      C1907   1.274       .  A
O1898     Cd2171   1.987       .  S
O1898     Cd2172   1.987       .  S
O1898     Cd1899   2.020       .  S
Cd1899     O1901   2.104       .  S
O1900      C1907   1.274       .  A
C1902      O2165   1.274       .  A
C1902      O1906   1.271       .  A
C1903      O2168   1.275       .  A
C1905      O2167   1.273       .  A
C1907      C1911   1.460       .  S
C1908      O2185   1.273       .  A
O1909      C2184   1.273       .  A
O1910      C1926   1.271       .  A
O1910     Zn1916   1.993       .  S
C1911      O1927   1.269       .  A
C1911      O1924   1.277       .  A
O1912      C1925   1.274       .  A
O1912     Cd1919   2.089       .  S
O1913      C1931   1.280       .  A
O1913     Cd1922   2.106       .  S
O1914      C1928   1.273       .  A
O1914     Cd1918   2.045       .  S
O1915      C1926   1.275       .  A
O1915     Cd1918   2.090       .  S
Zn1916     O1927   1.981       .  S
Zn1916     O1929   1.993       .  S
Zn1916     O1921   1.917       .  S
O1917      C1928   1.280       .  A
O1917     Cd1922   2.107       .  S
Cd1918     O1920   2.072       .  S
Cd1918     O1921   1.987       .  S
Cd1919     O1923   2.072       .  S
Cd1919     O1932   2.044       .  S
Cd1919     O1921   1.987       .  S
O1920      C1930   1.274       .  A
O1921     Cd1922   2.020       .  S
Cd1922     O1924   2.104       .  S
O1923      C1930   1.274       .  A
C1925      O1929   1.271       .  A
C1931      O1932   1.273       .  A
O1933      C1949   1.268       .  A
O1933     Zn1939   1.980       .  S
C1934      O1950   1.271       .  A
C1934      C2133   1.470       .  S
O1935     Cd1942   2.091       .  S
O1936      C1954   1.274       .  A
O1936     Cd1945   2.072       .  S
O1937     Cd1941   2.106       .  S
O1938      C1949   1.277       .  A
O1938     Cd1941   2.105       .  S
Zn1939     O1950   1.992       .  S
Zn1939     O1952   1.992       .  S
Zn1939     O1944   1.916       .  S
O1940      C1951   1.273       .  A
O1940     Cd1945   2.045       .  S
Cd1941     O1943   2.106       .  S
Cd1941     O1944   2.020       .  S
Cd1942     O1946   2.045       .  S
Cd1942     O1955   2.072       .  S
Cd1945     O1947   2.090       .  S
O1946      C1953   1.273       .  A
C1948      O1952   1.271       .  A
C1948      C2040   1.470       .  S
C1949      C1977   1.460       .  S
C1953      C2181   1.461   1_556  S
C1954      O1955   1.274       .  A
C1954      C1972   1.460       .  S
O1956      C1972   1.268       .  A
O1956     Zn1962   1.980       .  S
C1957      O1973   1.271       .  A
C1957      O1970   1.275       .  A
C1957      C2156   1.470       .  S
O1958      C1971   1.275       .  A
O1958     Cd1965   2.091       .  S
O1959      C1977   1.274       .  A
O1959     Cd1968   2.072       .  S
O1960      C1974   1.280       .  A
O1960     Cd1964   2.106       .  S
O1961      C1972   1.277       .  A
O1961     Cd1964   2.104       .  S
Zn1962     O1973   1.992       .  S
Zn1962     O1975   1.992       .  S
Zn1962     O1967   1.916       .  S
O1963      C1974   1.273       .  A
O1963     Cd1968   2.045       .  S
Cd1964     O1966   2.106       .  S
Cd1964     O1967   2.020       .  S
Cd1965     O1969   2.045       .  S
Cd1965     O1978   2.072       .  S
Cd1965     O1967   1.987       .  S
O1966      C1976   1.280       .  A
O1967     Cd1968   1.987       .  S
Cd1968     O1970   2.090       .  S
O1969      C1976   1.273       .  A
C1971      O1975   1.271       .  A
C1971      C2049   1.470       .  S
C1976      C2204   1.461       .  S
C1977      O1978   1.274       .  A
O1979      C1995   1.268       .  A
O1979     Zn1985   1.980       .  S
C1980      O1996   1.271   1_554  A
C1980      C2087   1.470       .  S
O1981     Cd1988   2.090       .  S
O1982      C2000   1.274       .  A
O1982     Cd1991   2.072       .  S
O1983      C1997   1.279   1_556  A
O1983     Cd1987   2.105       .  S
O1984      C1995   1.277       .  A
O1984     Cd1987   2.104       .  S
Zn1985     O1996   1.991       .  S
Zn1985     O1998   1.991       .  S
Zn1985     O1990   1.916   1_556  S
O1986     Cd1991   2.046       .  S
Cd1987     O1989   2.105       .  S
Cd1987     O1990   2.020   1_556  S
Cd1988     O1992   2.046       .  S
Cd1988     O2001   2.072       .  S
Cd1991     O1993   2.090       .  S
O1992      C1999   1.274       .  A
C1994      O1998   1.271   1_554  A
C1994      C2178   1.470       .  S
C1995      C2023   1.460       .  S
C2000      O2001   1.274       .  A
C2000      C2018   1.459       .  S
O2002      C2018   1.268       .  A
O2002     Zn2008   1.980       .  S
C2003      O2019   1.271       .  A
C2003      O2016   1.275       .  A
C2003      C2110   1.470       .  S
O2004      C2017   1.275       .  A
O2004     Cd2011   2.090       .  S
O2005      C2023   1.274       .  A
O2005     Cd2014   2.072       .  S
O2006      C2020   1.279       .  A
O2006     Cd2010   2.104       .  S
O2007      C2018   1.277       .  A
O2007     Cd2010   2.104       .  S
Zn2008     O2019   1.991       .  S
Zn2008     O2021   1.991       .  S
Zn2008     O2013   1.916       .  S
O2009      C2020   1.274       .  A
O2009     Cd2014   2.046       .  S
Cd2010     O2012   2.105       .  S
Cd2010     O2013   2.020       .  S
Cd2011     O2015   2.046       .  S
Cd2011     O2024   2.072       .  S
Cd2011     O2013   1.987       .  S
O2012      C2022   1.279       .  A
O2013     Cd2014   1.987       .  S
Cd2014     O2016   2.090       .  S
O2015      C2022   1.274       .  A
C2017      O2021   1.271       .  A
C2017      C2201   1.470       .  S
C2023      O2024   1.274       .  A
O2025      C2041   1.271       .  A
O2025     Zn2031   1.992       .  S
C2026      O2042   1.269       .  A
C2026      O2039   1.277       .  A
C2026      C2069   1.460       .  S
O2027     Cd2034   2.091       .  S
O2028     Cd2037   2.106       .  S
O2029      C2043   1.273       .  A
O2029     Cd2033   2.044       .  S
O2030     Cd2033   2.089       .  S
Zn2031     O2042   1.981       .  S
Zn2031     O2044   1.992       .  S
Zn2031     O2036   1.917       .  S
O2032     Cd2037   2.106       .  S
Cd2033     O2035   2.072       .  S
Cd2034     O2038   2.072       .  S
Cd2034     O2047   2.045       .  S
O2035      C2045   1.274       .  A
O2036     Cd2037   2.020       .  S
Cd2037     O2039   2.104       .  S
O2038      C2045   1.274       .  A
C2040      O2044   1.271       .  A
C2041      C2132   1.470       .  S
C2045      C2064   1.460       .  S
C2046      O2047   1.273       .  A
C2046      C2092   1.461   1_556  S
O2048      C2064   1.269       .  A
O2048     Zn2054   1.980       .  S
C2049      O2065   1.271       .  A
C2049      O2062   1.275       .  A
O2050      C2063   1.275       .  A
O2050     Cd2057   2.089       .  S
O2051      C2069   1.274       .  A
O2051     Cd2060   2.072       .  S
O2052      C2066   1.280       .  A
O2052     Cd2056   2.106       .  S
O2053      C2064   1.277       .  A
O2053     Cd2056   2.104       .  S
Zn2054     O2065   1.992       .  S
Zn2054     O2067   1.992       .  S
Zn2054     O2059   1.917       .  S
O2055      C2066   1.273       .  A
O2055     Cd2060   2.045       .  S
Cd2056     O2058   2.106       .  S
Cd2056     O2059   2.020       .  S
Cd2057     O2061   2.045       .  S
Cd2057     O2070   2.072       .  S
Cd2057     O2059   1.987       .  S
O2058      C2068   1.280       .  A
O2059     Cd2060   1.987       .  S
Cd2060     O2062   2.090       .  S
O2061      C2068   1.273       .  A
C2063      O2067   1.271       .  A
C2063      C2155   1.470       .  S
C2066      C2115   1.461       .  S
C2069      O2070   1.274       .  A
O2071      C2087   1.272   1_556  A
O2071     Zn2077   1.992       .  S
C2072      O2088   1.268       .  A
C2072      O2085   1.277       .  A
C2072      C2114   1.460       .  S
O2073     Cd2080   2.091       .  S
O2074      C2092   1.280   1_556  A
O2074     Cd2083   2.106       .  S
O2075     Cd2079   2.045       .  S
O2076     Cd2079   2.090       .  S
Zn2077     O2088   1.980       .  S
Zn2077     O2090   1.992       .  S
Zn2077     O2082   1.916   1_556  S
O2078      C2089   1.280   1_556  A
O2078     Cd2083   2.106       .  S
Cd2079     O2081   2.072       .  S
Cd2080     O2084   2.072       .  S
Cd2080     O2093   2.045       .  S
O2081      C2091   1.274       .  A
O2082     Cd2083   2.020   1_554  S
Cd2083     O2085   2.104       .  S
O2084      C2091   1.274       .  A
C2086      O2090   1.271   1_554  A
C2086      C2179   1.470       .  S
C2091      C2095   1.460       .  S
O2094      C2110   1.271       .  A
O2094     Zn2100   1.992       .  S
C2095      O2111   1.268       .  A
C2095      O2108   1.277       .  A
O2096      C2109   1.275       .  A
O2096     Cd2103   2.091       .  S
O2097      C2115   1.280       .  A
O2097     Cd2106   2.106       .  S
O2098      C2112   1.273       .  A
O2098     Cd2102   2.045       .  S
O2099      C2110   1.275       .  A
O2099     Cd2102   2.090       .  S
Zn2100     O2111   1.980       .  S
Zn2100     O2113   1.992       .  S
Zn2100     O2105   1.916       .  S
O2101      C2112   1.280       .  A
O2101     Cd2106   2.106       .  S
Cd2102     O2104   2.072       .  S
Cd2102     O2105   1.987       .  S
Cd2103     O2107   2.072       .  S
Cd2103     O2116   2.045       .  S
Cd2103     O2105   1.987       .  S
O2104      C2114   1.274       .  A
O2105     Cd2106   2.020       .  S
Cd2106     O2108   2.105       .  S
O2107      C2114   1.274       .  A
C2109      O2113   1.271       .  A
C2109      C2202   1.470       .  S
C2115      O2116   1.273       .  A
O2117      C2133   1.271       .  A
O2117     Zn2123   1.991       .  S
C2118      O2134   1.268       .  A
C2118      O2131   1.277       .  A
C2118      C2160   1.459       .  S
O2119     Cd2126   2.090       .  S
O2120     Cd2129   2.105       .  S
O2121      C2135   1.274       .  A
O2121     Cd2125   2.046       .  S
O2122     Cd2125   2.090       .  S
Zn2123     O2134   1.980       .  S
Zn2123     O2136   1.992       .  S
Zn2123     O2128   1.917       .  S
O2124     Cd2129   2.104       .  S
Cd2125     O2127   2.072       .  S
Cd2126     O2130   2.072       .  S
Cd2126     O2139   2.046       .  S
O2127      C2137   1.274       .  A
O2128     Cd2129   2.020       .  S
Cd2129     O2131   2.104       .  S
O2130      C2137   1.274       .  A
C2132      O2136   1.271       .  A
C2137      C2141   1.459       .  S
C2138      O2139   1.273       .  A
O2140      C2156   1.271       .  A
O2140     Zn2146   1.991       .  S
C2141      O2157   1.268       .  A
C2141      O2154   1.277       .  A
O2142      C2155   1.275       .  A
O2142     Cd2149   2.090       .  S
O2143      C2161   1.279       .  A
O2143     Cd2152   2.105       .  S
O2144      C2158   1.274       .  A
O2144     Cd2148   2.046       .  S
O2145      C2156   1.275       .  A
O2145     Cd2148   2.090       .  S
Zn2146     O2157   1.980       .  S
Zn2146     O2159   1.992       .  S
Zn2146     O2151   1.917       .  S
O2147      C2158   1.279       .  A
O2147     Cd2152   2.105       .  S
Cd2148     O2150   2.072       .  S
Cd2148     O2151   1.987       .  S
Cd2149     O2153   2.072       .  S
Cd2149     O2162   2.046       .  S
Cd2149     O2151   1.987       .  S
O2150      C2160   1.274       .  A
O2151     Cd2152   2.020       .  S
Cd2152     O2154   2.104       .  S
O2153      C2160   1.274       .  A
C2155      O2159   1.271       .  A
C2161      O2162   1.273       .  A
O2163      C2179   1.271   1_556  A
O2163     Zn2169   1.993       .  S
C2164      O2180   1.269       .  A
C2164      O2177   1.277       .  A
C2164      C2206   1.460       .  S
O2165     Cd2172   2.089       .  S
O2166      C2184   1.280   1_556  A
O2166     Cd2175   2.106       .  S
O2167     Cd2171   2.045       .  S
O2168     Cd2171   2.090       .  S
Zn2169     O2180   1.981       .  S
Zn2169     O2182   1.993       .  S
Zn2169     O2174   1.917   1_556  S
O2170      C2181   1.280   1_556  A
O2170     Cd2175   2.107       .  S
Cd2171     O2173   2.072       .  S
Cd2172     O2176   2.072       .  S
Cd2172     O2185   2.044       .  S
O2173      C2183   1.274       .  A
O2174     Cd2175   2.020   1_554  S
Cd2175     O2177   2.104       .  S
O2176      C2183   1.274       .  A
C2178      O2182   1.271   1_554  A
C2183      C2187   1.460       .  S
O2186      C2202   1.271       .  A
O2186     Zn2192   1.993       .  S
C2187      O2203   1.269       .  A
C2187      O2200   1.277       .  A
O2188      C2201   1.274       .  A
O2188     Cd2195   2.089       .  S
O2189      C2207   1.280       .  A
O2189     Cd2198   2.106       .  S
O2190      C2204   1.273       .  A
O2190     Cd2194   2.045       .  S
O2191      C2202   1.275       .  A
O2191     Cd2194   2.090       .  S
Zn2192     O2203   1.981       .  S
Zn2192     O2205   1.993       .  S
Zn2192     O2197   1.917       .  S
O2193      C2204   1.280       .  A
O2193     Cd2198   2.107       .  S
Cd2194     O2196   2.072       .  S
Cd2194     O2197   1.987       .  S
Cd2195     O2199   2.072       .  S
Cd2195     O2208   2.044       .  S
Cd2195     O2197   1.987       .  S
O2196      C2206   1.274       .  A
O2197     Cd2198   2.020       .  S
Cd2198     O2200   2.104       .  S
O2199      C2206   1.274       .  A
C2201      O2205   1.271       .  A
C2207      O2208   1.273       .  A
