geometry optimzed in LAMMPS
_audit_creation_date              2020-12-01 
_audit_creation_method            'lammps2cif' 
_symmetry_space_group_name_H-M    'P1' 
_symmetry_Int_Tables_number       1 
_symmetry_cell_setting            triclinic 
loop_ 
_symmetry_equiv_pos_as_xyz 
  x,y,z 
_cell_length_a                    29.47414822 
_cell_length_b                    29.437819518314488 
_cell_length_c                    29.61692308922017 
_cell_angle_alpha                 90.01356354405834 
_cell_angle_beta                  89.9859493714208 
_cell_angle_gamma                 90.03992883557497 
loop_ 
_atom_site_label 
_atom_site_type_symbol 
_atom_site_fract_x 
_atom_site_fract_y 
_atom_site_fract_z 
_atom_site_charge 
N1          N  0.60263216  0.55601665  0.92609535    -0.05600
N2          N  0.62816023  0.56218009  0.89007506    -0.57700
N3          N  0.57382555  0.58436834  0.03105758    -0.05300
N4          N  0.57985517  0.61197788  0.06554502    -0.59900
N5          N  0.60606882  0.55354322  0.02973939    -0.04900
N6          N  0.63469076  0.55926656  0.06345122    -0.57700
N7          N  0.56976568  0.58619105  0.92735387    -0.04600
N8          N  0.57200005  0.61342147  0.89204468    -0.60200
C9          C  0.60863835  0.59802460  0.86932647     0.96600
C10         C  0.61777990  0.59575552  0.08531135     0.96300
N11         N  0.43682546  0.54975207  0.03513965    -0.05800
N12         N  0.40845777  0.55563566  0.06916413    -0.58300
N13         N  0.46394926  0.58402416  0.93161380    -0.03900
N14         N  0.45613109  0.61299730  0.89860320    -0.59600
N15         N  0.43369025  0.55119414  0.93132418    -0.05800
N16         N  0.40468596  0.55688356  0.89786393    -0.58600
N17         N  0.46794324  0.58179059  0.03509340    -0.03600
N18         N  0.46172620  0.60998835  0.06917409    -0.59700
Mn19       Mn  0.51895095  0.58569146  0.98134810     1.18400
C20         C  0.42468017  0.59311101  0.09014600     0.98600
C21         C  0.41910782  0.59565276  0.87801602     0.99300
N22         N  0.61042189  0.44741505  0.02733975    -0.05900
N23         N  0.63914939  0.44196805  0.06108781    -0.62200
N24         N  0.57672066  0.41732310  0.92400734    -0.04700
N25         N  0.58279068  0.39016352  0.88906174    -0.62800
N26         N  0.60679343  0.45032100  0.92359010    -0.05400
N27         N  0.63378832  0.44667413  0.88825765    -0.62400
N28         N  0.57955140  0.41517102  0.02772054    -0.04300
N29         N  0.58627323  0.38719813  0.06179587    -0.63100
Mn30       Mn  0.60816995  0.50196876  0.97671510     1.10700
C31         C  0.62364856  0.40419826  0.08198927     0.99900
C32         C  0.61833511  0.40909886  0.86711015     0.99900
N33         N  0.43789267  0.44464228  0.92907797    -0.05400
N34         N  0.41045941  0.43946470  0.89421666    -0.60700
N35         N  0.47384473  0.41270665  0.03141619    -0.04700
N36         N  0.47164341  0.38577994  0.06696630    -0.57500
N37         N  0.44164942  0.44359787  0.03311356    -0.06000
N38         N  0.41702336  0.43861524  0.06989976    -0.60300
N39         N  0.47084333  0.41454727  0.92753341    -0.05000
N40         N  0.46684274  0.38847837  0.89159687    -0.57500
Mn41       Mn  0.43571625  0.49703682  0.98215623     1.20200
Mn42       Mn  0.52514549  0.41318637  0.97762438     1.10100
Cl43       Cl  0.52194503  0.49945835  0.97946858    -0.85500
C44         C  0.42905156  0.40431347  0.87139920     0.96900
C45         C  0.43606626  0.40246482  0.09048060     0.96700
N46         N  0.46480282  0.95481122  0.39278368    -0.05600
N47         N  0.45798857  0.92186034  0.36340620    -0.57700
N48         N  0.43590591  0.05741236  0.43119909    -0.05300
N49         N  0.40903847  0.09319453  0.42929959    -0.59900
N50         N  0.46637358  0.05896454  0.39877882    -0.04900
N51         N  0.46075111  0.09561704  0.37381687    -0.57700
N52         N  0.43477214  0.95281101  0.42550985    -0.04600
N53         N  0.40690772  0.91831358  0.41938568    -0.60200
C54         C  0.42183263  0.89954269  0.38052909     0.96600
C55         C  0.42509920  0.11657267  0.39347636     0.96300
N56         N  0.47114799  0.05057542  0.56579716    -0.05800
N57         N  0.46718607  0.08562712  0.59335046    -0.58300
N58         N  0.43851513  0.94704909  0.53062885    -0.03900
N59         N  0.41088862  0.91210579  0.53519110    -0.59600
N60         N  0.47088257  0.94557371  0.56114134    -0.05800
N61         N  0.46610111  0.90942849  0.58704787    -0.58600
N62         N  0.43846876  0.05106740  0.53560695    -0.03600
N63         N  0.41142669  0.08605629  0.54193564    -0.59700
Mn64       Mn  0.43525209  0.00194467  0.48080295     1.18400
C65         C  0.42960848  0.10709591  0.57806244     0.98600
C66         C  0.42859347  0.88892787  0.57041109     0.99300
N67         N  0.57273343  0.05720151  0.39467735    -0.05900
N68         N  0.57892632  0.09213317  0.36752680    -0.62200
N69         N  0.60287439  0.95141346  0.42050690    -0.04700
N70         N  0.62983755  0.91669078  0.41262605    -0.62800
N71         N  0.57022757  0.95315180  0.39029507    -0.05400
N72         N  0.57397217  0.91940479  0.36127550    -0.62400
N73         N  0.60547432  0.05503563  0.42473714    -0.04300
N74         N  0.63480654  0.08834286  0.41864926    -0.63100
Mn75       Mn  0.51844148  0.00623151  0.39245104     1.10700
C76         C  0.61771899  0.11113013  0.38290193     0.99900
C77         C  0.61124444  0.89718050  0.37579022     0.99900
N78         N  0.57660637  0.94533844  0.55845957    -0.05400
N79         N  0.58220999  0.90912821  0.58407618    -0.60700
N80         N  0.60786665  0.05106491  0.53008027    -0.04700
N81         N  0.63494738  0.08643133  0.53491451    -0.57500
N82         N  0.57757896  0.04987193  0.56269332    -0.06000
N83         N  0.58362184  0.08417166  0.59073309    -0.60300
N84         N  0.60671000  0.94597021  0.52569339    -0.05000
N85         N  0.63332973  0.90997847  0.52806006    -0.57500
Mn86       Mn  0.52411631  0.99786737  0.56390749     1.20200
Mn87       Mn  0.60744700  0.00083826  0.47532244     1.10100
Cl88       Cl  0.52134559  0.00177810  0.47813160    -0.85500
C89         C  0.61757649  0.88749463  0.56462602     0.96900
C90         C  0.61943749  0.10653281  0.57288296     0.96700
N91         N  0.96526216  0.56060134  0.39937454    -0.05600
N92         N  0.93115907  0.56703938  0.37137007    -0.57700
N93         N  0.06778241  0.59656747  0.43042581    -0.05300
N94         N  0.09944190  0.62775106  0.42440031    -0.59900
N95         N  0.06833149  0.56703591  0.39707433    -0.04900
N96         N  0.09995033  0.57756689  0.36744032    -0.57700
N97         N  0.96376774  0.59002034  0.43273238    -0.04600
N98         N  0.92832263  0.61703168  0.42839534    -0.60200
C99         C  0.90839232  0.60207050  0.39008672     0.96600
C100        C  0.11883377  0.61545819  0.38484349     0.96300
N101        N  0.07196339  0.55579139  0.56564803    -0.05800
N102        N  0.10657388  0.56115641  0.59323554    -0.58300
N103        N  0.96582515  0.58277825  0.53761574    -0.03900
N104        N  0.92884736  0.60702998  0.54397345    -0.59600
N105        N  0.96772974  0.54908218  0.56669050    -0.05800
N106        N  0.93184716  0.54946008  0.59338946    -0.58600
N107        N  0.06970609  0.58959471  0.53671475    -0.03600
N108        N  0.10263947  0.61903636  0.54418186    -0.59700
Mn109      Mn  0.01686194  0.59144753  0.48462570     1.18400
C110        C  0.12509942  0.60069411  0.57951586     0.98600
C111        C  0.90811225  0.58582537  0.57871418     0.99300
N112        N  0.07484179  0.46042471  0.39095397    -0.05900
N113        N  0.10854370  0.45761301  0.36171035    -0.62200
N114        N  0.97307033  0.42146452  0.42249103    -0.04700
N115        N  0.93912274  0.39294295  0.41630118    -0.62800
N116        N  0.97069702  0.45525845  0.39354875    -0.05400
N117        N  0.93490322  0.45081786  0.36727683    -0.62400
N118        N  0.07665635  0.42665627  0.41999658    -0.04300
N119        N  0.11134938  0.39993356  0.41105495    -0.63100
Mn120      Mn  0.01992604  0.51081199  0.39374648     1.10700
C121        C  0.13072268  0.41965000  0.37472469     0.99900
C122        C  0.91577670  0.41187430  0.38187765     0.99900
N123        N  0.97481490  0.44409903  0.56119926    -0.05400
N124        N  0.94081855  0.43606622  0.58891758    -0.60700
N125        N  0.08007864  0.42059171  0.52579303    -0.04700
N126        N  0.11655173  0.39477213  0.52926037    -0.57500
N127        N  0.07862432  0.45013254  0.55908994    -0.06000
N128        N  0.11382096  0.44495907  0.58605779    -0.60300
N129        N  0.97526654  0.41447970  0.52801941    -0.05000
N130        N  0.94126222  0.38556180  0.53237285    -0.57500
Mn131      Mn  0.02340379  0.49972976  0.56475266     1.20200
Mn132      Mn  0.02639906  0.41901828  0.47397520     1.10100
Cl133      Cl  0.02186900  0.50526857  0.47923602    -0.85500
C134        C  0.92029908  0.39944686  0.57065695     0.96900
C135        C  0.13716850  0.41041726  0.56702436     0.96700
C136        C  0.75268701  0.33475406  0.30748502     0.03600
C137        C  0.73385350  0.29550170  0.32661801    -0.12500
C138        C  0.69641793  0.27427174  0.30628180     0.01100
C139        C  0.67794807  0.29297442  0.26672347    -0.11100
C140        C  0.69632512  0.33268673  0.24808243     0.03600
C141        C  0.73358357  0.35353713  0.26860649    -0.10500
H142        H  0.74861621  0.28131767  0.35702911     0.09200
H143        H  0.64961617  0.27641345  0.25017493     0.06700
H144        H  0.74839436  0.38374570  0.25369630     0.06600
C145        C  0.75329458  0.68218330  0.30250802     0.03600
C146        C  0.73214345  0.72097002  0.31977773    -0.12500
C147        C  0.69381754  0.73881992  0.29839500     0.01100
C148        C  0.67657182  0.71788527  0.25974999    -0.11100
C149        C  0.69784557  0.67944614  0.24191799     0.03600
C150        C  0.73634482  0.66168554  0.26329053    -0.10500
H151        H  0.74541136  0.73719106  0.34992173     0.09200
H152        H  0.64656534  0.73157840  0.24353182     0.06700
H153        H  0.75284400  0.63179524  0.24968144     0.06600
C154        C  0.69513892  0.33137523  0.70479354     0.03600
C155        C  0.67583715  0.29144785  0.68735468    -0.12500
C156        C  0.69512779  0.27013740  0.64965832     0.01100
C157        C  0.73423310  0.28831394  0.62984523    -0.11100
C158        C  0.75359201  0.32839193  0.64667195     0.03600
C159        C  0.73340092  0.35016850  0.68376587    -0.10500
H160        H  0.64604165  0.27691353  0.70318831     0.09200
H161        H  0.74988094  0.27087485  0.60163292     0.06700
H162        H  0.74832044  0.38104573  0.69718496     0.06600
C163        C  0.34097622  0.74112238  0.29905145     0.03600
C164        C  0.30066966  0.72462181  0.31778084    -0.12500
C165        C  0.27912358  0.68670056  0.29908259     0.01100
C166        C  0.29797202  0.66513957  0.26122443    -0.11100
C167        C  0.33853285  0.68147392  0.24228991     0.03600
C168        C  0.35969598  0.71970619  0.26118895    -0.10500
H169        H  0.28611215  0.74121613  0.34708870     0.09200
H170        H  0.28168946  0.63530602  0.24718429     0.06700
H171        H  0.39095612  0.73249323  0.24673287     0.06600
C172        C  0.34706107  0.73158906  0.65555122     0.03600
C173        C  0.30823361  0.71161639  0.63678837    -0.12500
C174        C  0.28743896  0.67469862  0.65798739     0.01100
C175        C  0.30621748  0.65637012  0.69721980    -0.11100
C176        C  0.34548064  0.67539488  0.71586165     0.03600
C177        C  0.36552896  0.71342082  0.69539004    -0.10500
H178        H  0.29394501  0.72494329  0.60577374     0.09200
H179        H  0.29012098  0.62743233  0.71338791     0.06700
H180        H  0.39535907  0.72864506  0.71033403     0.06600
C181        C  0.36051390  0.33508315  0.70275894     0.03600
C182        C  0.32328794  0.35657096  0.68251144    -0.12500
C183        C  0.30307747  0.33787961  0.64377999     0.01100
C184        C  0.32133351  0.29815708  0.62494956    -0.11100
C185        C  0.35892355  0.27699020  0.64482237     0.03600
C186        C  0.37836031  0.29553821  0.68376309    -0.10500
H187        H  0.30936467  0.38708969  0.69759896     0.09200
H188        H  0.30562518  0.28303661  0.59549377     0.06700
H189        H  0.40658894  0.27849740  0.70001900     0.06600
C190        C  0.67870762  0.66330311  0.69945049     0.03600
C191        C  0.66251216  0.70260460  0.67824649    -0.12500
C192        C  0.68375710  0.71908840  0.63922897     0.01100
C193        C  0.72129915  0.69615073  0.62145161    -0.11100
C194        C  0.73799124  0.65713719  0.64285659     0.03600
C195        C  0.71605102  0.64027198  0.68121010    -0.10500
H196        H  0.63432797  0.72120530  0.69290978     0.09200
H197        H  0.73870983  0.70975445  0.59221453     0.06700
H198        H  0.72953387  0.61065110  0.69831864     0.06600
C199        C  0.35255146  0.28127032  0.31804655     0.03600
C200        C  0.37560693  0.29752215  0.28000861    -0.12500
C201        C  0.35885263  0.33499102  0.25618538     0.01100
C202        C  0.31920266  0.35656863  0.27099582    -0.11100
C203        C  0.29647627  0.34084381  0.30936485     0.03600
C204        C  0.31310371  0.30308970  0.33291958    -0.10500
H205        H  0.40603048  0.28040396  0.26842314     0.09200
H206        H  0.30561698  0.38508766  0.25226974     0.06700
H207        H  0.29488719  0.29015405  0.36199383     0.06600
C208        C  0.17951961  0.39150257  0.58621958    -0.04800
C209        C  0.21874713  0.38703064  0.55924322    -0.02000
C210        C  0.25955255  0.37101398  0.57835384     0.03000
C211        C  0.26101839  0.35795081  0.62431293    -0.04800
C212        C  0.22138816  0.36181278  0.65101975    -0.01900
C213        C  0.18096545  0.37874573  0.63211046     0.03000
C214        C  0.21741237  0.39958029  0.51192889     0.37700
C215        C  0.22130628  0.34705121  0.69771786     0.37700
C216        C  0.14014597  0.38083652  0.65951869     0.36100
C217        C  0.30029195  0.36901708  0.55086961     0.36100
N218        N  0.10765281  0.38221424  0.68142435    -0.38700
N219        N  0.33274525  0.36741970  0.52891687    -0.38700
N220        N  0.22029923  0.33573434  0.73509368    -0.38200
N221        N  0.21630743  0.40926899  0.47409903    -0.38200
C222        C  0.16647052  0.61990877  0.59935507    -0.04800
C223        C  0.16430092  0.66036566  0.62470420    -0.02000
C224        C  0.20372331  0.67735276  0.64548669     0.03000
C225        C  0.24564468  0.65524610  0.63874842    -0.04800
C226        C  0.24780951  0.61503695  0.61300852    -0.01900
C227        C  0.20799993  0.59670735  0.59429647     0.03000
C228        C  0.12134333  0.68374464  0.63041751     0.37700
C229        C  0.29109120  0.59302690  0.60509623     0.37700
C230        C  0.20981676  0.55423357  0.56942745     0.36100
C231        C  0.20088271  0.71644765  0.67518233     0.36100
N232        N  0.21111836  0.52027012  0.54977479    -0.38700
N233        N  0.19826732  0.74714300  0.69945874    -0.38700
N234        N  0.32558900  0.57555747  0.59837519    -0.38200
N235        N  0.08711920  0.70246864  0.63489429    -0.38200
C236        C  0.15876327  0.63759451  0.36475748    -0.04800
C237        C  0.20132312  0.63274550  0.38572806    -0.02000
C238        C  0.24082381  0.64685242  0.36311707     0.03000
C239        C  0.23761747  0.66884262  0.32088013    -0.04800
C240        C  0.19470466  0.67572593  0.30087966    -0.01900
C241        C  0.15533871  0.65929932  0.32243930     0.03000
C242        C  0.20453421  0.61231176  0.43019436     0.37700
C243        C  0.19101829  0.70006493  0.25847359     0.37700
C244        C  0.11120486  0.66553684  0.30164898     0.36100
C245        C  0.28483951  0.63631736  0.38221232     0.36100
N246        N  0.07596787  0.67061908  0.28517362    -0.38700
N247        N  0.31966035  0.62669369  0.39744007    -0.38700
N248        N  0.18785207  0.71966552  0.22475951    -0.38200
N249        N  0.20693351  0.59639019  0.46582427    -0.38200
C250        C  0.17228558  0.40231245  0.35340281    -0.04800
C251        C  0.21376539  0.42509380  0.36030865    -0.02000
C252        C  0.25461660  0.40476359  0.34631281     0.03000
C253        C  0.25370608  0.36271001  0.32346844    -0.04800
C254        C  0.21187925  0.34158020  0.31368895    -0.01900
C255        C  0.17121160  0.36092173  0.32946454     0.03000
C256        C  0.21446634  0.46869632  0.38314996     0.37700
C257        C  0.21080435  0.30026234  0.28696912     0.37700
C258        C  0.12823031  0.33851070  0.32076807     0.36100
C259        C  0.29759690  0.42620837  0.35699838     0.36100
N260        N  0.09394690  0.32065756  0.31377392    -0.38700
N261        N  0.33176315  0.44330963  0.36604774    -0.38700
N262        N  0.21011693  0.26753292  0.26532379    -0.38200
N263        N  0.21488500  0.50349123  0.40132093    -0.38200
C264        C  0.86531431  0.60187624  0.59868433    -0.04800
C265        C  0.82598579  0.57453997  0.59724468    -0.02000
C266        C  0.78400033  0.59261147  0.61129795     0.03000
C267        C  0.78180417  0.63733115  0.62845607    -0.04800
C268        C  0.82184372  0.66338324  0.63267370    -0.01900
C269        C  0.86329600  0.64605996  0.61688524     0.03000
C270        C  0.82844165  0.52844029  0.58004572     0.37700
C271        C  0.82059533  0.70767035  0.65423780     0.37700
C272        C  0.90415652  0.67346203  0.62004897     0.36100
C273        C  0.74290671  0.56585554  0.60668913     0.36100
N274        N  0.93679739  0.69520295  0.62244534    -0.38700
N275        N  0.71007116  0.54461469  0.60288006    -0.38700
N276        N  0.81957498  0.74285803  0.67163954    -0.38200
N277        N  0.83038508  0.49157963  0.56658305    -0.38200
C278        C  0.87846188  0.37912680  0.58942287    -0.04800
C279        C  0.84034018  0.37199575  0.56150800    -0.02000
C280        C  0.79925642  0.35639587  0.58025633     0.03000
C281        C  0.79648570  0.34616195  0.62685899    -0.04800
C282        C  0.83520681  0.35203368  0.65448806    -0.01900
C283        C  0.87570992  0.36929356  0.63600305     0.03000
C284        C  0.84265498  0.38247632  0.51371300     0.37700
C285        C  0.83392972  0.33914444  0.70179546     0.37700
C286        C  0.91494228  0.37589260  0.66491739     0.36100
C287        C  0.75955329  0.35251902  0.55157539     0.36100
N288        N  0.94614068  0.38127729  0.68803486    -0.38700
N289        N  0.72831646  0.34971272  0.52809311    -0.38700
N290        N  0.83281713  0.32891713  0.73951026    -0.38200
N291        N  0.84439356  0.39064424  0.47555920    -0.38200
C292        C  0.79435475  0.35488019  0.32655195    -0.04800
C293        C  0.83642441  0.33311126  0.31961855    -0.02000
C294        C  0.87610181  0.35130770  0.33872227     0.03000
C295        C  0.87411344  0.39256763  0.36267750    -0.04800
C296        C  0.83255986  0.41584196  0.36736399    -0.01900
C297        C  0.79248701  0.39657297  0.34999361     0.03000
C298        C  0.83942655  0.29380971  0.29025750     0.37700
C299        C  0.83101243  0.45920081  0.39066228     0.37700
C300        C  0.74943661  0.41965441  0.35602400     0.36100
C301        C  0.91931034  0.32860381  0.33213441     0.36100
N302        N  0.71512327  0.43814641  0.36074173    -0.38700
N303        N  0.95379699  0.31059462  0.32684651    -0.38700
N304        N  0.82998275  0.49377280  0.40923848    -0.38200
N305        N  0.84245021  0.26317486  0.26597319    -0.38200
C306        C  0.79329038  0.66282231  0.32566153    -0.04800
C307        C  0.78908900  0.64509501  0.36983222    -0.02000
C308        C  0.82697280  0.62560794  0.39131613     0.03000
C309        C  0.86903257  0.62394702  0.36870407    -0.04800
C310        C  0.87352110  0.64266156  0.32507844    -0.01900
C311        C  0.83568462  0.66195666  0.30351745     0.03000
C312        C  0.74558249  0.64603812  0.39279782     0.37700
C313        C  0.91750459  0.64351125  0.30300432     0.37700
C314        C  0.84061665  0.68183297  0.25892615     0.36100
C315        C  0.82231849  0.60598168  0.43604350     0.36100
N316        N  0.84446790  0.69762419  0.22334779    -0.38700
N317        N  0.81851619  0.59021938  0.47164626    -0.38700
N318        N  0.95265704  0.64440355  0.28560396    -0.38200
N319        N  0.71090108  0.64708911  0.41110481    -0.38200
C320        C  0.63890645  0.14827477  0.59233565    -0.04800
C321        C  0.63620318  0.18967592  0.56851484    -0.02000
C322        C  0.65216996  0.22998118  0.58861997     0.03000
C323        C  0.67471617  0.22832423  0.63064135    -0.04800
C324        C  0.67943266  0.18642867  0.65331976    -0.01900
C325        C  0.66005411  0.14678503  0.63497970     0.03000
C326        C  0.61661033  0.19093697  0.52356440     0.37700
C327        C  0.70611967  0.18343352  0.69427411     0.37700
C328        C  0.66340609  0.10404962  0.65918773     0.36100
C329        C  0.64398147  0.27332199  0.56683720     0.36100
N330        N  0.66597144  0.06996978  0.67848991    -0.38700
N331        N  0.63658786  0.30787713  0.54975487    -0.38700
N332        N  0.72803679  0.17990378  0.72646562    -0.38200
N333        N  0.60108660  0.19194154  0.48768310    -0.38200
C334        C  0.41191702  0.15018561  0.59613687    -0.04800
C335        C  0.43955376  0.18927324  0.59628471    -0.02000
C336        C  0.42171681  0.23116710  0.61061654     0.03000
C337        C  0.37662577  0.23370498  0.62652320    -0.04800
C338        C  0.34898762  0.19446407  0.62649289    -0.01900
C339        C  0.36638969  0.15296985  0.61052902     0.03000
C340        C  0.48585164  0.18674245  0.58008575     0.37700
C341        C  0.30299679  0.19646479  0.64390986     0.37700
C342        C  0.33770181  0.11287682  0.60982001     0.36100
C343        C  0.44926434  0.27193207  0.60746427     0.36100
N344        N  0.31482584  0.08091566  0.60909805    -0.38700
N345        N  0.47125354  0.30438278  0.60456649    -0.38700
N346        N  0.26632789  0.19816585  0.65778692    -0.38200
N347        N  0.52276389  0.18459075  0.56708724    -0.38200
C348        C  0.36820665  0.23903537  0.33990283    -0.04800
C349        C  0.35854677  0.19687119  0.31941826    -0.02000
C350        C  0.37795226  0.15686269  0.33659999     0.03000
C351        C  0.40451055  0.15855126  0.37609587    -0.04800
C352        C  0.41174387  0.20029114  0.39839137    -0.01900
C353        C  0.39461057  0.24076905  0.37957762     0.03000
C354        C  0.32767895  0.19454658  0.28136031     0.37700
C355        C  0.43786303  0.20169224  0.43986666     0.37700
C356        C  0.40502776  0.28420830  0.40025631     0.36100
C357        C  0.37064372  0.11392429  0.31362084     0.36100
N358        N  0.41353069  0.31890289  0.41659024    -0.38700
N359        N  0.36511282  0.07971681  0.29515293    -0.38700
N360        N  0.45884445  0.20280541  0.47286483    -0.38200
N361        N  0.30237388  0.19238230  0.25157817    -0.38200
C362        C  0.63816794  0.15264164  0.36366266    -0.04800
C363        C  0.68426527  0.15324549  0.35094357    -0.02000
C364        C  0.70337259  0.19284959  0.33208042     0.03000
C365        C  0.67654910  0.23231930  0.32625761    -0.04800
C366        C  0.63041986  0.23150792  0.33940314    -0.01900
C367        C  0.61133581  0.19178134  0.35775521     0.03000
C368        C  0.71164241  0.11250058  0.35546289     0.37700
C369        C  0.60243265  0.27176465  0.33531346     0.37700
C370        C  0.56420522  0.19169369  0.37184751     0.36100
C371        C  0.75029033  0.19205152  0.31744684     0.36100
N372        N  0.52661422  0.19157107  0.38301481    -0.38700
N373        N  0.78781966  0.19031027  0.30617583    -0.38700
N374        N  0.57921390  0.30327875  0.33243837    -0.38200
N375        N  0.73349873  0.08003323  0.35889105    -0.38200
C376        C  0.36808223  0.77172187  0.63330567    -0.04800
C377        C  0.41416811  0.77072181  0.62005435    -0.02000
C378        C  0.43418606  0.80928121  0.60005662     0.03000
C379        C  0.40760378  0.84799994  0.59051512    -0.04800
C380        C  0.36101066  0.84811168  0.60152251    -0.01900
C381        C  0.34176626  0.81089037  0.62436783     0.03000
C382        C  0.44069289  0.72954590  0.62555105     0.37700
C383        C  0.33286030  0.88703543  0.59051541     0.37700
C384        C  0.29526745  0.81398040  0.64016888     0.36100
C385        C  0.48191929  0.80850899  0.58821342     0.36100
N386        N  0.25821839  0.81713801  0.65267693    -0.38700
N387        N  0.52007057  0.80777802  0.57908624    -0.38700
N388        N  0.31023518  0.91780215  0.58135794    -0.38200
N389        N  0.46173962  0.69664206  0.62978783    -0.38200
C390        C  0.66873470  0.76245040  0.61884782    -0.04800
C391        C  0.64713256  0.76267471  0.57632849    -0.02000
C392        C  0.63159116  0.80390424  0.55774224     0.03000
C393        C  0.63699744  0.84480145  0.58203569    -0.04800
C394        C  0.65976294  0.84474636  0.62389936    -0.01900
C395        C  0.67607496  0.80370668  0.64206039     0.03000
C396        C  0.64006544  0.72031705  0.55226961     0.37700
C397        C  0.66719867  0.88714101  0.64780502     0.37700
C398        C  0.70140305  0.80400561  0.68408471     0.36100
C399        C  0.60865778  0.80401228  0.51440317     0.36100
N400        N  0.72184315  0.80418120  0.71744515    -0.38700
N401        N  0.59020285  0.80398448  0.47991891    -0.38700
N402        N  0.67318247  0.92103751  0.66669686    -0.38200
N403        N  0.63460185  0.68640436  0.53325120    -0.38200
C404        C  0.67168192  0.77983690  0.31643679    -0.04800
C405        C  0.62692756  0.77738603  0.33333430    -0.02000
C406        C  0.60612487  0.81652642  0.35091731     0.03000
C407        C  0.63078918  0.85748499  0.35324872    -0.04800
C408        C  0.67513442  0.86017272  0.33566571    -0.01900
C409        C  0.69534557  0.82151651  0.31661105     0.03000
C410        C  0.60293190  0.73430650  0.33405797     0.37700
C411        C  0.69950573  0.90305784  0.33623234     0.37700
C412        C  0.74009085  0.82483504  0.29637525     0.36100
C413        C  0.55988891  0.81434319  0.36767022     0.36100
N414        N  0.77569628  0.82750580  0.28010624    -0.38700
N415        N  0.52293957  0.81256925  0.38078393    -0.38700
N416        N  0.71874682  0.93733910  0.33671928    -0.38200
N417        N  0.58397048  0.69987025  0.33466096    -0.38200
C418        C  0.40156586  0.85902448  0.35961862    -0.04800
C419        C  0.39982990  0.81783823  0.38381635    -0.02000
C420        C  0.38137815  0.77884034  0.36340976     0.03000
C421        C  0.36334522  0.78127587  0.31927529    -0.04800
C422        C  0.36505984  0.82260573  0.29515994    -0.01900
C423        C  0.38424806  0.86141615  0.31530424     0.03000
C424        C  0.41775958  0.81534168  0.42944477     0.37700
C425        C  0.34606890  0.82549563  0.25005082     0.37700
C426        C  0.38410916  0.90440308  0.29132081     0.36100
C427        C  0.38242781  0.73596594  0.38743710     0.36100
N428        N  0.38375273  0.93881255  0.27243294    -0.38700
N429        N  0.38410648  0.70208336  0.40712123    -0.38700
N430        N  0.33100902  0.82770688  0.21403613    -0.38200
N431        N  0.43192739  0.81333382  0.46583888    -0.38200
C432        C  0.64251442  0.38609390  0.12430528    -0.04800
C433        C  0.68615186  0.36656730  0.12492447    -0.02000
C434        C  0.70354085  0.34852963  0.16540078     0.03000
C435        C  0.67789825  0.35144526  0.20559249    -0.04800
C436        C  0.63489557  0.37242297  0.20515474    -0.01900
C437        C  0.61664435  0.38841012  0.16428476     0.03000
C438        C  0.71251810  0.36377021  0.08365919     0.37700
C439        C  0.61045172  0.37991149  0.24697669     0.37700
C440        C  0.57155351  0.40812535  0.16352481     0.36100
C441        C  0.74753881  0.32642037  0.16566741     0.36100
N442        N  0.53559812  0.42382295  0.16278563    -0.38700
N443        N  0.78258949  0.30873085  0.16612682    -0.38700
N444        N  0.59087762  0.38714280  0.28006419    -0.38200
N445        N  0.73356200  0.36148374  0.05074431    -0.38200
C446        C  0.63916282  0.61663202  0.12495876    -0.04800
C447        C  0.64449140  0.59134630  0.16499397    -0.02000
C448        C  0.66356605  0.61192680  0.20339167     0.03000
C449        C  0.67887565  0.65737760  0.20123395    -0.04800
C450        C  0.67440252  0.68229820  0.16067241    -0.01900
C451        C  0.65388447  0.66213265  0.12282934     0.03000
C452        C  0.62882312  0.54467624  0.16721397     0.37700
C453        C  0.69141761  0.72849345  0.15758042     0.37700
C454        C  0.64873662  0.68792138  0.08135329     0.36100
C455        C  0.66560246  0.58693634  0.24560323     0.36100
N456        N  0.64447018  0.70839707  0.04827199    -0.38700
N457        N  0.66717947  0.56715281  0.27933145    -0.38700
N458        N  0.70483482  0.76536655  0.15508616    -0.38200
N459        N  0.61640661  0.50744052  0.16909143    -0.38200
C460        C  0.36004451  0.65786498  0.20344678    -0.04800
C461        C  0.40350590  0.63814444  0.20837922    -0.02000
C462        C  0.42516223  0.61791467  0.17102281     0.03000
C463        C  0.40253822  0.61519460  0.12914820    -0.04800
C464        C  0.35911771  0.63471557  0.12414144    -0.01900
C465        C  0.33814634  0.65652293  0.16103831     0.03000
C466        C  0.42566794  0.63803646  0.25214527     0.37700
C467        C  0.33709516  0.63448002  0.08031357     0.37700
C468        C  0.29498147  0.67929271  0.15475296     0.36100
C469        C  0.47078586  0.60001324  0.17570965     0.36100
N470        N  0.26070285  0.69765148  0.14939625    -0.38700
N471        N  0.50725932  0.58596879  0.17949398    -0.38700
N472        N  0.31977250  0.63449335  0.04524829    -0.38200
N473        N  0.44314135  0.63800583  0.28713648    -0.38200
C474        C  0.41993594  0.38403393  0.13379411    -0.04800
C475        C  0.40518196  0.33860179  0.13646904    -0.02000
C476        C  0.38531724  0.32237577  0.17655312     0.03000
C477        C  0.38188209  0.35107375  0.21470852    -0.04800
C478        C  0.39876114  0.39592493  0.21253867    -0.01900
C479        C  0.41695367  0.41259818  0.17190915     0.03000
C480        C  0.40827860  0.30920801  0.09722214     0.37700
C481        C  0.39775927  0.42491698  0.25216801     0.37700
C482        C  0.43315144  0.45905535  0.16952204     0.36100
C483        C  0.36624431  0.27697722  0.17739058     0.36100
N484        N  0.44618133  0.49606672  0.16762195    -0.38700
N485        N  0.35104718  0.24074289  0.17715267    -0.38700
N486        N  0.39714524  0.44821969  0.28362716    -0.38200
N487        N  0.41079582  0.28579647  0.06592558    -0.38200
C488        C  0.62526545  0.61735421  0.82654662    -0.04800
C489        C  0.67026475  0.63328591  0.82369384    -0.02000
C490        C  0.68730046  0.64927555  0.78231129     0.03000
C491        C  0.65960725  0.64861637  0.74334994    -0.04800
C492        C  0.61414416  0.63375597  0.74649431    -0.01900
C493        C  0.59690606  0.61844886  0.78817932     0.03000
C494        C  0.69869069  0.63437906  0.86370335     0.37700
C495        C  0.58552759  0.63292227  0.70663664     0.37700
C496        C  0.55055271  0.60218007  0.79117151     0.36100
C497        C  0.73312486  0.66727561  0.78004012     0.36100
N498        N  0.51359454  0.58917232  0.79360221    -0.38700
N499        N  0.76963928  0.68162163  0.77807483    -0.38700
N500        N  0.56264245  0.63229944  0.67489173    -0.38200
N501        N  0.72124543  0.63535955  0.89566943    -0.40000
C502        C  0.67657101  0.35225143  0.74658533    -0.04800
C503        C  0.67817618  0.32801251  0.78774498    -0.02000
C504        C  0.65861598  0.34647303  0.82701830     0.03000
C505        C  0.63896272  0.39006232  0.82585506    -0.04800
C506        C  0.63991018  0.41565679  0.78558110    -0.01900
C507        C  0.65797336  0.39650820  0.74578871     0.03000
C508        C  0.70226325  0.28520899  0.79055004     0.37700
C509        C  0.62177732  0.46147453  0.78496570     0.37700
C510        C  0.65696009  0.42220406  0.70401190     0.36100
C511        C  0.66061454  0.32143201  0.86920848     0.36100
N512        N  0.65626522  0.44284487  0.67076611    -0.38700
N513        N  0.66242130  0.30152388  0.90285206    -0.38700
N514        N  0.60745464  0.49806886  0.78461898    -0.38200
N515        N  0.72199413  0.25143321  0.79382762    -0.38200
C516        C  0.37883957  0.35209950  0.74598033    -0.04800
C517        C  0.35550456  0.34284808  0.78656080    -0.02000
C518        C  0.37095955  0.36157625  0.82745303     0.03000
C519        C  0.41169811  0.38656986  0.82832885    -0.04800
C520        C  0.43703737  0.39270560  0.78835899    -0.01900
C521        C  0.42005788  0.37642946  0.74697904     0.03000
C522        C  0.31772941  0.31127351  0.78676525     0.37700
C523        C  0.48031140  0.41617640  0.78980372     0.37700
C524        C  0.44516575  0.38428830  0.70558633     0.36100
C525        C  0.34583397  0.35378500  0.86887572     0.36100
N526        N  0.46537624  0.39058967  0.67267411    -0.38700
N527        N  0.32573945  0.34766185  0.90189599    -0.38700
N528        N  0.51474939  0.43500735  0.79115806    -0.38200
N529        N  0.28850553  0.28501767  0.78743384    -0.38200
C530        C  0.36510608  0.65541852  0.75734537    -0.04800
C531        C  0.36409452  0.67989737  0.79832282    -0.02000
C532        C  0.38168648  0.66026290  0.83798495     0.03000
C533        C  0.39876849  0.61552205  0.83709220    -0.04800
C534        C  0.39845544  0.59056245  0.79647856    -0.01900
C535        C  0.38305499  0.61096745  0.75638266     0.03000
C536        C  0.34390756  0.72480503  0.79986553     0.37700
C537        C  0.41484452  0.54415868  0.79571429     0.37700
C538        C  0.38740277  0.58683972  0.71388006     0.36100
C539        C  0.38068817  0.68545217  0.88008523     0.36100
N540        N  0.39157114  0.56752570  0.68010537    -0.38700
N541        N  0.37979744  0.70546374  0.91371255    -0.38700
N542        N  0.42770419  0.50706867  0.79519923    -0.38200
N543        N  0.32764671  0.76055925  0.80094495    -0.38200
loop_ 
_geom_bond_atom_site_label_1 
_geom_bond_atom_site_label_2 
_geom_bond_distance 
_geom_bond_site_symmetry_2 
_ccdc_geom_bond_type 
N1            N2   1.318       .  A
N1            N7   1.315       .  A
N1          Mn30   2.193       .  S
N2            C9   1.350       .  A
N3            N5   1.315       .  A
N3            N4   1.317       .  A
N3          Mn19   2.188   1_554  S
N4           C10   1.350       .  A
N5            N6   1.318       .  A
N5          Mn30   2.185   1_554  S
N6           C10   1.350       .  A
N7            N8   1.319       .  A
N7          Mn19   2.191       .  S
N8            C9   1.351       .  A
C9          C488   1.473       .  S
C10         C446   1.467       .  S
N11          N17   1.315       .  A
N11          N12   1.321       .  A
N11         Mn41   2.207   1_554  S
N12          C20   1.353       .  A
N13          N14   1.318       .  A
N13          N15   1.315       .  A
N13         Mn19   2.191       .  S
N14          C21   1.350       .  A
N15          N16   1.320       .  A
N15         Mn41   2.194       .  S
N16          C21   1.352       .  A
N17          N18   1.320       .  A
N17         Mn19   2.192   1_554  S
N18          C20   1.351       .  A
Mn19        Cl43   2.541       .  S
C20         C463   1.477       .  S
C21         C533   1.474       .  S
N22          N23   1.320       .  A
N22          N28   1.314       .  A
N22         Mn30   2.198   1_554  S
N23          C31   1.352       .  A
N24          N26   1.315       .  A
N24          N25   1.320       .  A
N24         Mn42   2.201       .  S
N25          C32   1.353       .  A
N26          N27   1.319       .  A
N26         Mn30   2.188       .  S
N27          C32   1.350       .  A
N28          N29   1.318       .  A
N28         Mn42   2.186   1_554  S
N29          C31   1.349       .  A
Mn30        Cl43   2.544       .  S
C31         C432   1.471       .  S
C32         C505   1.475       .  S
N33          N34   1.320       .  A
N33          N39   1.316       .  A
N33         Mn41   2.203       .  S
N34          C44   1.352       .  A
N35          N36   1.320       .  A
N35          N37   1.316       .  A
N35         Mn42   2.196   1_554  S
N36          C45   1.351       .  A
N37          N38   1.317       .  A
N37         Mn41   2.187   1_554  S
N38          C45   1.349       .  A
N39          N40   1.317       .  A
N39         Mn42   2.183       .  S
N40          C44   1.348       .  A
Mn41        Cl43   2.544       .  S
Mn42        Cl43   2.542       .  S
C44         C519   1.470       .  S
C45         C474   1.472       .  S
N46          N47   1.318       .  A
N46          N52   1.314       .  A
N46         Mn75   2.188   1_565  S
N47          C54   1.350       .  A
N48          N50   1.315       .  A
N48          N49   1.319       .  A
N48         Mn64   2.197       .  S
N49          C55   1.350       .  A
N50          N51   1.319       .  A
N50         Mn75   2.192       .  S
N51          C55   1.351       .  A
N52          N53   1.318       .  A
N52         Mn64   2.185   1_565  S
N53          C54   1.350       .  A
C54         C418   1.470       .  S
C55         C351   1.470       .  S
N56          N62   1.314       .  A
N56          N57   1.321       .  A
N56         Mn86   2.203   1_545  S
N57          C65   1.354       .  A
N58          N59   1.318       .  A
N58          N60   1.315       .  A
N58         Mn64   2.191   1_565  S
N59          C66   1.352       .  A
N60          N61   1.319       .  A
N60         Mn86   2.199       .  S
N61          C66   1.352       .  A
N62          N63   1.316       .  A
N62         Mn64   2.176       .  S
N63          C65   1.347       .  A
Mn64        Cl88   2.539       .  S
C65         C334   1.472       .  S
C66         C379   1.479       .  S
N67          N68   1.318       .  A
N67          N73   1.315       .  A
N67         Mn75   2.194       .  S
N68          C76   1.352       .  A
N69          N71   1.315       .  A
N69          N70   1.316       .  A
N69         Mn87   2.184   1_565  S
N70          C77   1.349       .  A
N71          N72   1.318       .  A
N71         Mn75   2.186   1_565  S
N72          C77   1.349       .  A
N73          N74   1.319       .  A
N73         Mn87   2.190       .  S
N74          C76   1.351       .  A
Mn75        Cl88   2.542       .  S
C76         C362   1.477       .  S
C77         C407   1.464       .  S
N78          N79   1.319       .  A
N78          N84   1.315       .  A
N78         Mn86   2.194       .  S
N79          C89   1.351       .  A
N80          N81   1.319       .  A
N80          N82   1.316       .  A
N80         Mn87   2.194       .  S
N81          C90   1.350       .  A
N82          N83   1.319       .  A
N82         Mn86   2.197   1_545  S
N83          C90   1.351       .  A
N84          N85   1.321       .  A
N84         Mn87   2.199   1_565  S
N85          C89   1.351       .  A
Mn86        Cl88   2.544   1_565  S
Mn87        Cl88   2.539       .  S
C89         C393   1.475       .  S
C90         C320   1.473       .  S
N91          N92   1.317       .  A
N91          N97   1.314       .  A
N91        Mn120   2.185   1_655  S
N92          C99   1.350       .  A
N93          N95   1.316       .  A
N93          N94   1.321       .  A
N93        Mn109   2.202       .  S
N94         C100   1.353       .  A
N95          N96   1.317       .  A
N95        Mn120   2.187       .  S
N96         C100   1.349       .  A
N97          N98   1.320       .  A
N97        Mn109   2.194   1_655  S
N98          C99   1.351       .  A
C99         C309   1.471       .  S
C100        C236   1.470       .  S
N101        N107   1.315       .  A
N101        N102   1.317       .  A
N101       Mn131   2.184       .  S
N102        C110   1.348       .  A
N103        N104   1.317       .  A
N103        N105   1.315       .  A
N103       Mn109   2.188   1_655  S
N104        C111   1.350       .  A
N105        N106   1.320       .  A
N105       Mn131   2.193   1_655  S
N106        C111   1.351       .  A
N107        N108   1.320       .  A
N107       Mn109   2.193       .  S
N108        C110   1.351       .  A
Mn109      Cl133   2.546       .  S
C110        C222   1.467       .  S
C111        C264   1.471       .  S
N112        N113   1.320       .  A
N112        N118   1.316       .  A
N112       Mn120   2.198       .  S
N113        C121   1.351       .  A
N114        N116   1.315       .  A
N114        N115   1.319       .  A
N114       Mn132   2.191   1_655  S
N115        C122   1.351       .  A
N116        N117   1.317       .  A
N116       Mn120   2.186   1_655  S
N117        C122   1.348       .  A
N118        N119   1.317       .  A
N118       Mn132   2.191       .  S
N119        C121   1.349       .  A
Mn120      Cl133   2.538       .  S
C121        C250   1.470       .  S
C122        C295   1.467       .  S
N123        N124   1.317       .  A
N123        N129   1.314       .  A
N123       Mn131   2.177   1_655  S
N124        C134   1.349       .  A
N125        N126   1.321       .  A
N125        N127   1.315       .  A
N125       Mn132   2.205       .  S
N126        C135   1.354       .  A
N127        N128   1.318       .  A
N127       Mn131   2.194       .  S
N128        C135   1.351       .  A
N129        N130   1.321       .  A
N129       Mn132   2.202   1_655  S
N130        C134   1.354       .  A
Mn131      Cl133   2.538       .  S
Mn132      Cl133   2.547       .  S
C134        C278   1.479       .  S
C135        C208   1.481       .  S
C136        C292   1.476       .  S
C136        C137   1.401       .  A
C136        C141   1.396       .  A
C137        C138   1.404       .  A
C137        H142   1.084       .  S
C138        C365   1.489       .  S
C138        C139   1.405       .  A
C139        C140   1.401       .  A
C139        H143   1.084       .  S
C140        C435   1.478       .  S
C140        C141   1.397       .  A
C141        H144   1.084       .  S
C145        C306   1.479       .  S
C145        C146   1.398       .  A
C145        C150   1.401       .  A
C146        C147   1.398       .  A
C146        H151   1.085       .  S
C147        C404   1.473       .  S
C147        C148   1.396       .  A
C148        C149   1.398       .  A
C148        H152   1.085       .  S
C149        C449   1.479       .  S
C149        C150   1.401       .  A
C150        H153   1.083       .  S
C154        C502   1.486       .  S
C154        C155   1.404       .  A
C154        C159   1.402       .  A
C155        C156   1.401       .  A
C155        H160   1.083       .  S
C156        C323   1.481       .  S
C156        C157   1.399       .  A
C157        C158   1.402       .  A
C157        H161   1.084       .  S
C158        C281   1.488       .  S
C158        C159   1.404       .  A
C159        H162   1.085       .  S
C163        C421   1.480       .  S
C163        C164   1.398       .  A
C163        C168   1.400       .  A
C164        C165   1.398       .  A
C164        H169   1.084       .  S
C165        C239   1.479       .  S
C165        C166   1.403       .  A
C166        C167   1.405       .  A
C166        H170   1.083       .  S
C167        C460   1.486       .  S
C167        C168   1.403       .  A
C168        H171   1.083       .  S
C172        C376   1.488       .  S
C172        C173   1.401       .  A
C172        C177   1.406       .  A
C173        C174   1.396       .  A
C173        H178   1.084       .  S
C174        C225   1.473       .  S
C174        C175   1.396       .  A
C175        C176   1.399       .  A
C175        H179   1.086       .  S
C176        C530   1.480       .  S
C176        C177   1.403       .  A
C177        H180   1.081       .  S
C181        C516   1.477       .  S
C181        C182   1.402       .  A
C181        C186   1.396       .  A
C182        C183   1.405       .  A
C182        H187   1.084       .  S
C183        C211   1.490       .  S
C183        C184   1.403       .  A
C184        C185   1.401       .  A
C184        H188   1.083       .  S
C185        C337   1.480       .  S
C185        C186   1.399       .  A
C186        H189   1.085       .  S
C190        C491   1.481       .  S
C190        C191   1.401       .  A
C190        C195   1.401       .  A
C191        C192   1.401       .  A
C191        H196   1.086       .  S
C192        C390   1.480       .  S
C192        C193   1.399       .  A
C193        C194   1.402       .  A
C193        H197   1.083       .  S
C194        C267   1.480       .  S
C194        C195   1.398       .  A
C195        H198   1.084       .  S
C199        C348   1.476       .  S
C199        C200   1.400       .  A
C199        C204   1.400       .  A
C200        C201   1.400       .  A
C200        H205   1.085       .  S
C201        C477   1.481       .  S
C201        C202   1.401       .  A
C202        C203   1.398       .  A
C202        H206   1.083       .  S
C203        C253   1.476       .  S
C203        C204   1.401       .  A
C204        H207   1.084       .  S
C208        C209   1.411       .  A
C208        C213   1.411       .  A
C209        C210   1.411       .  A
C209        C214   1.450       .  S
C210        C211   1.415       .  A
C210        C217   1.452       .  S
C211        C212   1.415       .  A
C212        C213   1.408       .  A
C212        C215   1.450       .  S
C213        C216   1.453       .  S
C214        N221   1.157       .  T
C215        N220   1.156       .  T
C216        N218   1.157       .  T
C217        N219   1.157       .  T
C222        C223   1.409       .  A
C222        C227   1.410       .  A
C223        C224   1.407       .  A
C223        C228   1.451       .  S
C224        C225   1.411       .  A
C224        C231   1.451       .  S
C225        C226   1.409       .  A
C226        C227   1.405       .  A
C226        C229   1.450       .  S
C227        C230   1.452       .  S
C228        N235   1.157       .  T
C229        N234   1.157       .  T
C230        N232   1.157       .  T
C231        N233   1.157       .  T
C236        C237   1.407       .  A
C236        C241   1.411       .  A
C237        C238   1.406       .  A
C237        C242   1.451       .  S
C238        C239   1.412       .  A
C238        C245   1.449       .  S
C239        C240   1.412       .  A
C240        C241   1.410       .  A
C240        C243   1.450       .  S
C241        C244   1.451       .  S
C242        N249   1.157       .  T
C243        N248   1.157       .  T
C244        N246   1.157       .  T
C245        N247   1.157       .  T
C250        C251   1.409       .  A
C250        C255   1.410       .  A
C251        C252   1.407       .  A
C251        C256   1.451       .  S
C252        C253   1.411       .  A
C252        C259   1.450       .  S
C253        C254   1.411       .  A
C254        C255   1.407       .  A
C254        C257   1.451       .  S
C255        C258   1.451       .  S
C256        N263   1.157       .  T
C257        N262   1.157       .  T
C258        N260   1.157       .  T
C259        N261   1.157       .  T
C264        C265   1.411       .  A
C264        C269   1.409       .  A
C265        C266   1.410       .  A
C265        C270   1.451       .  S
C266        C267   1.413       .  A
C266        C273   1.451       .  S
C267        C268   1.413       .  A
C268        C269   1.404       .  A
C268        C271   1.452       .  S
C269        C272   1.452       .  S
C270        N277   1.157       .  T
C271        N276   1.157       .  T
C272        N274   1.157       .  T
C273        N275   1.157       .  T
C278        C279   1.411       .  A
C278        C283   1.412       .  A
C279        C280   1.409       .  A
C279        C284   1.450       .  S
C280        C281   1.415       .  A
C280        C287   1.451       .  S
C281        C282   1.415       .  A
C282        C283   1.408       .  A
C282        C285   1.452       .  S
C283        C286   1.452       .  S
C284        N291   1.156       .  T
C285        N290   1.157       .  T
C286        N288   1.157       .  T
C287        N289   1.157       .  T
C292        C293   1.411       .  A
C292        C297   1.411       .  A
C293        C294   1.405       .  A
C293        C298   1.450       .  S
C294        C295   1.408       .  A
C294        C301   1.452       .  S
C295        C296   1.411       .  A
C296        C297   1.407       .  A
C296        C299   1.452       .  S
C297        C300   1.451       .  S
C298        N305   1.157       .  T
C299        N304   1.157       .  T
C300        N302   1.157       .  T
C301        N303   1.157       .  T
C306        C307   1.414       .  A
C306        C311   1.411       .  A
C307        C308   1.408       .  A
C307        C312   1.452       .  S
C308        C309   1.410       .  A
C308        C315   1.452       .  S
C309        C310   1.411       .  A
C310        C311   1.406       .  A
C310        C313   1.452       .  S
C311        C314   1.452       .  S
C312        N319   1.157       .  T
C313        N318   1.157       .  T
C314        N316   1.157       .  T
C315        N317   1.158       .  T
C320        C321   1.411       .  A
C320        C325   1.409       .  A
C321        C322   1.408       .  A
C321        C326   1.452       .  S
C322        C323   1.412       .  A
C322        C329   1.450       .  S
C323        C324   1.411       .  A
C324        C325   1.408       .  A
C324        C327   1.449       .  S
C325        C328   1.452       .  S
C326        N333   1.158       .  T
C327        N332   1.157       .  T
C328        N330   1.157       .  T
C329        N331   1.157       .  T
C334        C335   1.409       .  A
C334        C339   1.410       .  A
C335        C336   1.406       .  A
C335        C340   1.448       .  S
C336        C337   1.412       .  A
C336        C343   1.451       .  S
C337        C338   1.413       .  A
C338        C339   1.407       .  A
C338        C341   1.451       .  S
C339        C342   1.452       .  S
C340        N347   1.156       .  T
C341        N346   1.157       .  T
C342        N344   1.157       .  T
C343        N345   1.157       .  T
C348        C349   1.410       .  A
C348        C353   1.410       .  A
C349        C350   1.405       .  A
C349        C354   1.450       .  S
C350        C351   1.409       .  A
C350        C357   1.451       .  S
C351        C352   1.411       .  A
C352        C353   1.409       .  A
C352        C355   1.450       .  S
C353        C356   1.450       .  S
C354        N361   1.157       .  T
C355        N360   1.157       .  T
C356        N358   1.157       .  T
C357        N359   1.157       .  T
C362        C363   1.410       .  A
C362        C367   1.409       .  A
C363        C364   1.410       .  A
C363        C368   1.452       .  S
C364        C365   1.416       .  A
C364        C371   1.449       .  S
C365        C366   1.414       .  A
C366        C367   1.407       .  A
C366        C369   1.449       .  S
C367        C370   1.450       .  S
C368        N375   1.157       .  T
C369        N374   1.156       .  T
C370        N372   1.156       .  T
C371        N373   1.157       .  T
C376        C377   1.414       .  A
C376        C381   1.415       .  A
C377        C378   1.409       .  A
C377        C382   1.452       .  S
C378        C379   1.412       .  A
C378        C385   1.450       .  S
C379        C380   1.411       .  A
C380        C381   1.407       .  A
C380        C383   1.452       .  S
C381        C384   1.451       .  S
C382        N389   1.157       .  T
C383        N388   1.157       .  T
C384        N386   1.157       .  T
C385        N387   1.157       .  T
C390        C391   1.411       .  A
C390        C395   1.412       .  A
C391        C392   1.410       .  A
C391        C396   1.451       .  S
C392        C393   1.411       .  A
C392        C399   1.451       .  S
C393        C394   1.410       .  A
C394        C395   1.408       .  A
C394        C397   1.451       .  S
C395        C398   1.452       .  S
C396        N403   1.157       .  T
C397        N402   1.157       .  T
C398        N400   1.157       .  T
C399        N401   1.157       .  T
C404        C405   1.413       .  A
C404        C409   1.411       .  A
C405        C406   1.405       .  A
C405        C410   1.452       .  S
C406        C407   1.409       .  A
C406        C413   1.452       .  S
C407        C408   1.409       .  A
C408        C409   1.403       .  A
C408        C411   1.452       .  S
C409        C412   1.452       .  S
C410        N417   1.157       .  T
C411        N416   1.157       .  T
C412        N414   1.157       .  T
C413        N415   1.157       .  T
C418        C419   1.409       .  A
C418        C423   1.410       .  A
C419        C420   1.406       .  A
C419        C424   1.453       .  S
C420        C421   1.413       .  A
C420        C427   1.449       .  S
C421        C422   1.412       .  A
C422        C423   1.407       .  A
C422        C425   1.451       .  S
C423        C426   1.451       .  S
C424        N431   1.158       .  T
C425        N430   1.157       .  T
C426        N428   1.157       .  T
C427        N429   1.157       .  T
C432        C433   1.409       .  A
C432        C437   1.410       .  A
C433        C434   1.408       .  A
C433        C438   1.450       .  S
C434        C435   1.412       .  A
C434        C441   1.451       .  S
C435        C436   1.410       .  A
C436        C437   1.406       .  A
C436        C439   1.450       .  S
C437        C440   1.451       .  S
C438        N445   1.157       .  T
C439        N444   1.157       .  T
C440        N442   1.157       .  T
C441        N443   1.157       .  T
C446        C447   1.409       .  A
C446        C451   1.409       .  A
C447        C448   1.406       .  A
C447        C452   1.451       .  S
C448        C449   1.413       .  A
C448        C455   1.452       .  S
C449        C450   1.414       .  A
C450        C451   1.405       .  A
C450        C453   1.452       .  S
C451        C454   1.452       .  S
C452        N459   1.157       .  T
C453        N458   1.157       .  T
C454        N456   1.157       .  T
C455        N457   1.157       .  T
C460        C461   1.414       .  A
C460        C465   1.413       .  A
C461        C462   1.409       .  A
C461        C466   1.452       .  S
C462        C463   1.410       .  A
C462        C469   1.451       .  S
C463        C464   1.411       .  A
C464        C465   1.410       .  A
C464        C467   1.451       .  S
C465        C468   1.450       .  S
C466        N473   1.157       .  T
C467        N472   1.157       .  T
C468        N470   1.157       .  T
C469        N471   1.158       .  T
C474        C475   1.408       .  A
C474        C479   1.410       .  A
C475        C476   1.407       .  A
C475        C480   1.452       .  S
C476        C477   1.414       .  A
C476        C483   1.450       .  S
C477        C478   1.412       .  A
C478        C479   1.406       .  A
C478        C481   1.451       .  S
C479        C482   1.450       .  S
C480        N487   1.157       .  T
C481        N486   1.157       .  T
C482        N484   1.156       .  T
C483        N485   1.157       .  T
C488        C489   1.409       .  A
C488        C493   1.411       .  A
C489        C490   1.406       .  A
C489        C494   1.452       .  S
C490        C491   1.414       .  A
C490        C497   1.452       .  S
C491        C492   1.412       .  A
C492        C493   1.409       .  A
C492        C495   1.451       .  S
C493        C496   1.450       .  S
C494        N501   1.157       .  T
C495        N500   1.157       .  T
C496        N498   1.157       .  T
C497        N499   1.157       .  T
C502        C503   1.413       .  A
C502        C507   1.414       .  A
C503        C504   1.407       .  A
C503        C508   1.449       .  S
C504        C505   1.409       .  A
C504        C511   1.452       .  S
C505        C506   1.411       .  A
C506        C507   1.411       .  A
C506        C509   1.451       .  S
C507        C510   1.451       .  S
C508        N515   1.156       .  T
C509        N514   1.157       .  T
C510        N512   1.157       .  T
C511        N513   1.157       .  T
C516        C517   1.411       .  A
C516        C521   1.410       .  A
C517        C518   1.406       .  A
C517        C522   1.450       .  S
C518        C519   1.408       .  A
C518        C525   1.451       .  S
C519        C520   1.411       .  A
C520        C521   1.408       .  A
C520        C523   1.451       .  S
C521        C524   1.450       .  S
C522        N529   1.157       .  T
C523        N528   1.157       .  T
C524        N526   1.157       .  T
C525        N527   1.157       .  T
C530        C531   1.412       .  A
C530        C535   1.412       .  A
C531        C532   1.408       .  A
C531        C536   1.451       .  S
C532        C533   1.411       .  A
C532        C539   1.451       .  S
C533        C534   1.409       .  A
C534        C535   1.406       .  A
C534        C537   1.449       .  S
C535        C538   1.451       .  S
C536        N543   1.157       .  T
C537        N542   1.156       .  T
C538        N540   1.157       .  T
C539        N541   1.157       .  T
