geometry optimzed in LAMMPS
_audit_creation_date              2020-11-30 
_audit_creation_method            'lammps2cif' 
_symmetry_space_group_name_H-M    'P1' 
_symmetry_Int_Tables_number       1 
_symmetry_cell_setting            triclinic 
loop_ 
_symmetry_equiv_pos_as_xyz 
  x,y,z 
_cell_length_a                    24.163096844421595 
_cell_length_b                    24.314490504986118 
_cell_length_c                    42.891390977168484 
_cell_angle_alpha                 90.64151975203185 
_cell_angle_beta                  89.18663451294802 
_cell_angle_gamma                 92.11608090030286 
loop_ 
_atom_site_label 
_atom_site_type_symbol 
_atom_site_fract_x 
_atom_site_fract_y 
_atom_site_fract_z 
_atom_site_charge 
O1          O  0.19676841  0.11908337  0.17448385    -0.80640
O2          O  0.26210422  0.17964534  0.07303765    -0.80660
O3          O  0.26524937  0.21678544  0.15688640    -0.80670
O4          O  0.17933205  0.12763520  0.09816288    -0.80610
O5          O  0.31806116  0.23156070  0.11558951    -0.80740
O6          O  0.16101117  0.06222347  0.13036208    -0.80650
O7          O  0.24205161  0.10982950  0.04393945    -0.80640
O8          O  0.26238554  0.13775368  0.20442898    -0.80680
C9          C  0.21186513  0.12631687  0.20141897     1.09050
C10         C  0.25213797  0.16161670  0.04615164     1.08940
C11         C  0.28144500  0.24726713  0.13484836     1.09070
C12         C  0.14469697  0.10275108  0.11530107     1.08950
O13         O  0.26071003  0.99682177  0.13064129    -0.80640
O14         O  0.40050205  0.14545346  0.11327979    -0.80720
O15         O  0.36164676  0.09784347  0.17674198    -0.80650
O16         O  0.30810517  0.03682017  0.08042476    -0.80630
O17         O  0.35234931  0.10388054  0.05983819    -0.80680
O18         O  0.29056132  0.04204309  0.18680218    -0.80650
O19         O  0.20685762  0.00736187  0.09130198    -0.80610
O20         O  0.38279571  0.19784659  0.15307961    -0.80680
Co21       Co  0.23271049  0.05858268  0.15353830     1.51530
Co22       Co  0.32979875  0.15962257  0.09399816     1.51690
Co23       Co  0.31301774  0.15707986  0.16719751     1.51570
Co24       Co  0.24575918  0.08445016  0.08896826     1.51470
O25         O  0.28480597  0.11149861  0.12798248    -1.42570
C26         C  0.22709301  0.97554190  0.11156049     1.08980
C27         C  0.41693307  0.18034958  0.13311244     1.09070
C28         C  0.34066572  0.05822961  0.19168226     1.09000
C29         C  0.34028088  0.05304027  0.05961659     1.08980
O30         O  0.27463104  0.50715312  0.13360226    -0.80640
O31         O  0.23968733  0.67179954  0.06467709    -0.80660
O32         O  0.19644416  0.52599997  0.08503557    -0.80670
O33         O  0.33327986  0.66293027  0.10388433    -0.80610
O34         O  0.16675602  0.59038805  0.05760705    -0.80740
O35         O  0.34534153  0.59555985  0.13742648    -0.80650
O36         O  0.26363848  0.74261187  0.09205090    -0.80640
O37         O  0.18645403  0.49365565  0.14091433    -0.80680
C38         C  0.23357292  0.47442620  0.13626469     1.09050
C39         C  0.25229927  0.72191669  0.06572368     1.08940
C40         C  0.18043315  0.54173103  0.05944816     1.09070
C41         C  0.36308423  0.62855344  0.11621157     1.08950
O42         O  0.26679277  0.63908511  0.18503504    -0.80640
O43         O  0.10222350  0.62532417  0.10976862    -0.80720
O44         O  0.14390246  0.59878397  0.16175126    -0.80650
O45         O  0.21500731  0.72296496  0.15325202    -0.80630
O46         O  0.16568192  0.72229384  0.11099686    -0.80680
O47         O  0.20586739  0.55243959  0.18494770    -0.80650
O48         O  0.32892017  0.69070681  0.16603624    -0.80610
O49         O  0.09827805  0.53478894  0.11544948    -0.80680
Co50       Co  0.27116147  0.57566781  0.15758421     1.51530
Co51       Co  0.17508186  0.64870064  0.08974299     1.51690
Co52       Co  0.16959007  0.56591730  0.12199879     1.51570
Co53       Co  0.27573817  0.69273100  0.12886407     1.51470
O54         O  0.23313846  0.61663074  0.12227592    -1.42570
C55         C  0.31264016  0.66188126  0.18864767     1.08980
C56         C  0.07442767  0.57995126  0.11401598     1.09070
C57         C  0.15965805  0.57534412  0.18578294     1.09000
C58         C  0.18260041  0.74679345  0.13551879     1.08980
O59         O  0.87909345  0.11467463  0.13068341    -0.80640
O60         O  0.71140081  0.09948872  0.17874879    -0.80660
O61         O  0.85280961  0.22502155  0.16807966    -0.80670
O62         O  0.71111393  0.04271378  0.12327104    -0.80610
O63         O  0.81054300  0.15507608  0.19329275    -0.80740
O64         O  0.79769238  0.04176493  0.13442090    -0.80650
O65         O  0.64103530  0.10675749  0.14951568    -0.80640
O66         O  0.89281394  0.19595814  0.11190261    -0.80680
C67         C  0.91234749  0.15232433  0.12218404     1.09050
C68         C  0.65952456  0.09935020  0.17680409     1.08940
C69         C  0.84980458  0.19098594  0.19069817     1.09070
C70         C  0.75190359  0.01704810  0.13212819     1.08950
O71         O  0.75014152  0.08103769  0.07432105    -0.80640
O72         O  0.76061457  0.25597444  0.18462430    -0.80720
O73         O  0.78983901  0.22621936  0.08344215    -0.80650
O74         O  0.67368579  0.19698921  0.11004766    -0.80630
O75         O  0.66667540  0.20452591  0.16161409    -0.80680
O76         O  0.83630975  0.15386407  0.07023729    -0.80650
O77         O  0.65900515  0.09279059  0.07933304    -0.80610
O78         O  0.75319507  0.26390499  0.13580166    -0.80680
Co79       Co  0.81328269  0.10124277  0.10534455     1.51530
Co80       Co  0.73946132  0.17559175  0.17763481     1.51690
Co81       Co  0.81812558  0.22444648  0.12502033     1.51570
Co82       Co  0.69940784  0.12239714  0.11470083     1.51470
O83         O  0.77000017  0.15529310  0.13370879    -1.42570
C84         C  0.70055204  0.07650926  0.06313992     1.08980
C85         C  0.75854769  0.28671476  0.16153153     1.09070
C86         C  0.81376483  0.19837674  0.06311090     1.09000
C87         C  0.64784269  0.21330388  0.13430978     1.08980
O88         O  0.83826007  0.59479786  0.09947128    -0.80640
O89         O  0.68101117  0.61287267  0.18033159    -0.80660
O90         O  0.83978724  0.72668201  0.15574286    -0.80670
O91         O  0.72750591  0.54212428  0.15193347    -0.80610
O92         O  0.76748160  0.69450663  0.18360936    -0.80740
O93         O  0.75854180  0.51833519  0.10614052    -0.80650
O94         O  0.61414746  0.56253883  0.16084955    -0.80640
O95         O  0.81772356  0.61798317  0.14700170    -0.80680
C96         C  0.84964596  0.59605853  0.12796698     1.09050
C97         C  0.63236137  0.59217450  0.18342597     1.08940
C98         C  0.81799080  0.71523516  0.18211244     1.09070
C99         C  0.75229823  0.50881614  0.13505460     1.08950
O100        O  0.69125204  0.57771532  0.06242840    -0.80640
O101        O  0.69533417  0.76036652  0.14617473    -0.80720
O102        O  0.83409429  0.69493508  0.09115381    -0.80650
O103        O  0.62214303  0.62215716  0.10578048    -0.80630
O104        O  0.61436246  0.68180468  0.14323960    -0.80680
O105        O  0.77449069  0.65589169  0.05829864    -0.80650
O106        O  0.65687220  0.52268076  0.09769268    -0.80610
O107        O  0.76391510  0.75513458  0.11406786    -0.80680
Co108      Co  0.76256578  0.59074068  0.08350841     1.51530
Co109      Co  0.69325649  0.68326839  0.15875083     1.51690
Co110      Co  0.78777964  0.68567511  0.13100505     1.51570
Co111      Co  0.67301348  0.58419331  0.13003821     1.51470
O112        O  0.72529316  0.64272531  0.11595602    -1.42570
C113        C  0.66479686  0.53348860  0.06886659     1.08980
C114        C  0.72883866  0.78323739  0.12777260     1.09070
C115        C  0.81313985  0.69072120  0.06391384     1.09000
C116        C  0.59393485  0.65521246  0.12032831     1.08980
O117        O  0.30342427  0.37998601  0.95528704    -0.80640
O118        O  0.25813769  0.32303557  0.80469725    -0.80660
O119        O  0.18277535  0.27359008  0.90168257    -0.80670
O120        O  0.36111610  0.43567918  0.86894661    -0.80610
O121        O  0.22845321  0.25732235  0.85777816    -0.80740
O122        O  0.34846256  0.36264457  0.89661733    -0.80650
O123        O  0.32909391  0.36532388  0.82569434    -0.80640
O124        O  0.26974821  0.31141474  0.92753090    -0.80680
C125        C  0.29184875  0.32815896  0.95277513     1.09050
C126        C  0.30803609  0.34176109  0.80275458     1.08940
C127        C  0.20922352  0.24117520  0.88388903     1.09070
C128        C  0.38066061  0.39394526  0.88146645     1.08950
O129        O  0.29898232  0.47639898  0.90827426    -0.80640
O130        O  0.12745310  0.31723342  0.86432033    -0.80720
O131        O  0.17213436  0.35136050  0.95023217    -0.80650
O132        O  0.23919032  0.43008107  0.80497264    -0.80630
O133        O  0.16924710  0.39243938  0.82813871    -0.80680
O134        O  0.21137263  0.42755451  0.93258164    -0.80650
O135        O  0.25885926  0.49110807  0.86287990    -0.80610
O136        O  0.14120283  0.38894540  0.89345576    -0.80680
Co137      Co  0.27839205  0.39281416  0.91227929     1.51530
Co138      Co  0.19983666  0.32433337  0.84056662     1.51690
Co139      Co  0.20715208  0.35281152  0.90921475     1.51570
Co140      Co  0.29274609  0.42840061  0.84260746     1.51470
O141        O  0.24645663  0.37397240  0.86974990    -1.42570
C142        C  0.27711314  0.50938086  0.88877731     1.08980
C143        C  0.10844154  0.35801772  0.87870481     1.09070
C144        C  0.18122715  0.40287499  0.95323161     1.09000
C145        C  0.18992370  0.41001422  0.80386223     1.08980
O146        O  0.29874557  0.93168476  0.93188327    -0.80640
O147        O  0.30634311  0.87925153  0.80338288    -0.80660
O148        O  0.37983751  0.88374950  0.87772171    -0.80670
O149        O  0.27883739  0.99694516  0.88299974    -0.80610
O150        O  0.35926029  0.81578023  0.84480329    -0.80740
O151        O  0.20847635  0.97972145  0.91283015    -0.80650
O152        O  0.32217045  0.95787304  0.82905336    -0.80640
O153        O  0.35805991  0.86712689  0.94167996    -0.80680
C154        C  0.33622130  0.91252625  0.94934502     1.09050
C155        C  0.32985564  0.92686333  0.80573531     1.08940
C156        C  0.39530478  0.84810624  0.85786314     1.09070
C157        C  0.24313419  0.01451668  0.90161377     1.08950
O158        O  0.15678360  0.88055060  0.89067728    -0.80640
O159        O  0.25190596  0.76975429  0.86621832    -0.80720
O160        O  0.25221822  0.82805712  0.93187143    -0.80650
O161        O  0.21475459  0.92303799  0.80959742    -0.80630
O162        O  0.19859973  0.83587129  0.82203321    -0.80680
O163        O  0.19723708  0.89054474  0.95146840    -0.80650
O164        O  0.16644605  0.95598972  0.86225309    -0.80610
O165        O  0.32384773  0.78039266  0.89682635    -0.80680
Co166      Co  0.22785627  0.89970852  0.91029684     1.51530
Co167      Co  0.27698617  0.82733749  0.83627398     1.51690
Co168      Co  0.31450082  0.86280016  0.90369736     1.51570
Co169      Co  0.24781968  0.95586021  0.84768483     1.51470
O170        O  0.26517282  0.88582470  0.86922981    -1.42570
C171        C  0.13559574  0.91717272  0.87402758     1.08980
C172        C  0.28588207  0.74912557  0.88478895     1.09070
C173        C  0.22169856  0.84564353  0.95443162     1.09000
C174        C  0.18709401  0.87824996  0.80644744     1.08980
O175        O  0.80685313  0.38529611  0.95797118    -0.80640
O176        O  0.76762214  0.32013303  0.80884997    -0.80660
O177        O  0.69313458  0.26270532  0.90580579    -0.80670
O178        O  0.85586557  0.44135379  0.87399609    -0.80610
O179        O  0.74239278  0.25415318  0.86233154    -0.80740
O180        O  0.84591944  0.36584874  0.89939718    -0.80650
O181        O  0.83270005  0.37321634  0.82909944    -0.80640
O182        O  0.77594147  0.31139736  0.93321601    -0.80680
C183        C  0.79975871  0.33300388  0.95694901     1.09050
C184        C  0.81578904  0.34359376  0.80725734     1.08940
C185        C  0.72277676  0.23364177  0.88728887     1.09070
C186        C  0.87726077  0.40010181  0.88601849     1.08950
O187        O  0.79063458  0.47403588  0.91264966    -0.80640
O188        O  0.63383822  0.30473971  0.86691216    -0.80720
O189        O  0.67501833  0.34297871  0.95647490    -0.80650
O190        O  0.73684044  0.42799197  0.80885139    -0.80630
O191        O  0.66833949  0.37727205  0.82630871    -0.80680
O192        O  0.70703655  0.42129269  0.93857843    -0.80650
O193        O  0.74779608  0.48889241  0.86813554    -0.80610
O194        O  0.64020262  0.37400353  0.89885924    -0.80680
Co195      Co  0.77556074  0.39108393  0.91633833     1.51530
Co196      Co  0.70663379  0.31643982  0.84332200     1.51690
Co197      Co  0.70901998  0.34512026  0.91435214     1.51570
Co198      Co  0.78821176  0.42999349  0.84724685     1.51470
O199        O  0.74451568  0.37156528  0.87373088    -1.42570
C200        C  0.76529961  0.50598246  0.89442853     1.08980
C201        C  0.61127391  0.34423998  0.88114808     1.09070
C202        C  0.68011932  0.39498625  0.96004772     1.09000
C203        C  0.69082578  0.40207034  0.80416753     1.08980
O204        O  0.82957832  0.83351434  0.93606544    -0.80640
O205        O  0.76452338  0.77935886  0.81373736    -0.80660
O206        O  0.70302302  0.76609305  0.90722662    -0.80670
O207        O  0.86183403  0.94091191  0.85087578    -0.80610
O208        O  0.77804357  0.76306504  0.87744433    -0.80740
O209        O  0.87432279  0.87841366  0.88494068    -0.80650
O210        O  0.82620284  0.84392772  0.82690789    -0.80640
O211        O  0.74438982  0.83007740  0.95512804    -0.80680
C212        C  0.79502375  0.81822627  0.95677487     1.09050
C213        C  0.81169763  0.80323987  0.80889825     1.08940
C214        C  0.74401980  0.73985878  0.89615579     1.09070
C215        C  0.89513569  0.91160150  0.86565462     1.08950
O216        O  0.81511738  0.98270178  0.89852219    -0.80640
O217        O  0.66774710  0.79560358  0.85451457    -0.80720
O218        O  0.68836982  0.92401802  0.93385361    -0.80650
O219        O  0.77602982  0.93299421  0.80377025    -0.80630
O220        O  0.71254448  0.87561518  0.82291200    -0.80680
O221        O  0.77412771  0.93387048  0.95052484    -0.80650
O222        O  0.74830458  0.97539476  0.86370804    -0.80610
O223        O  0.64583928  0.86373130  0.88541188    -0.80680
Co224      Co  0.82118728  0.90478988  0.91555187     1.51530
Co225      Co  0.74997313  0.82148259  0.85164615     1.51690
Co226      Co  0.69830144  0.84790284  0.91802322     1.51570
Co227      Co  0.78220406  0.90865146  0.84675084     1.51470
O228        O  0.76089985  0.87298863  0.88840811    -1.42570
C229        C  0.77490190  0.00358291  0.88402686     1.08980
C230        C  0.63184005  0.82919820  0.86469097     1.09070
C231        C  0.72358424  0.94661292  0.95193887     1.09000
C232        C  0.73192642  0.90338748  0.79975621     1.08980
O233        O  0.07859848  0.34758246  0.67259186    -0.80640
O234        O  0.01231811  0.29069319  0.58285003    -0.80660
O235        O  0.98056244  0.26201169  0.65122988    -0.80670
O236        O  0.11926881  0.36732249  0.60659335    -0.80610
O237        O  0.92429908  0.26296083  0.61269284    -0.80740
O238        O  0.12704326  0.42712496  0.64361447    -0.80650
O239        O  0.05290421  0.35386094  0.55660114    -0.80640
O240        O  0.00863399  0.32727124  0.70039989    -0.80680
C241        C  0.06040822  0.33554574  0.69846922     1.09050
C242        C  0.03364118  0.30530623  0.55792523     1.08940
C243        C  0.95459435  0.23623212  0.63044551     1.09070
C244        C  0.14857190  0.39001708  0.62711064     1.08950
O245        O  0.02190548  0.48786994  0.65033925    -0.80640
O246        O  0.88615749  0.37931516  0.60581488    -0.80720
O247        O  0.92618837  0.40465689  0.67526662    -0.80650
O248        O  0.99629709  0.45223610  0.57663044    -0.80630
O249        O  0.95546836  0.38314948  0.55468952    -0.80680
O250        O  0.99729752  0.42475137  0.70113661    -0.80650
O251        O  0.07695981  0.48384233  0.61033679    -0.80610
O252        O  0.87704277  0.32620338  0.64574592    -0.80680
Co253      Co  0.04937394  0.41777417  0.66224319     1.51530
Co254      Co  0.95021894  0.33566608  0.59388769     1.51690
Co255      Co  0.95447583  0.33369232  0.66353219     1.51570
Co256      Co  0.05612929  0.40907219  0.59221131     1.51470
O257        O  0.00176436  0.37512730  0.62765294    -1.42570
C258        C  0.04546039  0.51131543  0.62781774     1.08980
C259        C  0.85655883  0.36072635  0.62771863     1.09070
C260        C  0.94535314  0.41686225  0.70087497     1.09000
C261        C  0.97367963  0.43236290  0.55308316     1.08980
O262        O  0.01243593  0.79195184  0.69897749    -0.80640
O263        O  0.93070530  0.82039618  0.57580741    -0.80660
O264        O  0.90219843  0.93174164  0.66179646    -0.80670
O265        O  0.05969890  0.77308768  0.60206998    -0.80610
O266        O  0.88454997  0.86566010  0.62853338    -0.80740
O267        O  0.99103032  0.76503565  0.63657772    -0.80650
O268        O  0.01422872  0.82964290  0.55479726    -0.80640
O269        O  0.94352923  0.84037673  0.68380533    -0.80680
C270        C  0.96281304  0.80670894  0.70337650     1.09050
C271        C  0.96434988  0.81123383  0.55372222     1.08940
C272        C  0.86708726  0.90047243  0.64792864     1.09070
C273        C  0.02332448  0.74361210  0.61689892     1.08950
O274        O  0.10164594  0.80739640  0.65305022    -0.80640
O275        O  0.93703134  0.97244289  0.61169597    -0.80720
O276        O  0.99239911  0.93589187  0.70572762    -0.80650
O277        O  0.06615439  0.93025879  0.57580003    -0.80630
O278        O  0.97931320  0.92737132  0.55993644    -0.80680
O279        O  0.05829927  0.89325439  0.68115230    -0.80650
O280        O  0.11565500  0.87707215  0.62274488    -0.80610
O281        O  0.00735001  0.97852412  0.64449884    -0.80680
Co282      Co  0.02024489  0.82914513  0.65858804     1.51530
Co283      Co  0.93529312  0.89405685  0.59573624     1.51690
Co284      Co  0.98160616  0.90863574  0.66294386     1.51570
Co285      Co  0.06151483  0.85414810  0.59099753     1.51470
O286        O  0.99989132  0.87286253  0.62117426    -1.42570
C287        C  0.13577330  0.84066956  0.63930363     1.08980
C288        C  0.97393546  0.00107769  0.62636841     1.09070
C289        C  0.04064512  0.91620182  0.70600637     1.09000
C290        C  0.02878705  0.94736295  0.55843300     1.08980
O291        O  0.46065590  0.34765504  0.68842516    -0.80640
O292        O  0.46977386  0.43677373  0.56486383    -0.80660
O293        O  0.48525775  0.49332728  0.62422345    -0.80670
O294        O  0.39987960  0.37723333  0.60734585    -0.80610
O295        O  0.55473391  0.49130318  0.59169618    -0.80740
O296        O  0.40927146  0.30560235  0.63820965    -0.80650
O297        O  0.42936647  0.36187056  0.54565281    -0.80640
O298        O  0.44271622  0.43254162  0.67462583    -0.80680
C299        C  0.43342257  0.39055294  0.69183990     1.09050
C300        C  0.43874901  0.41357081  0.54418161     1.08940
C301        C  0.51725672  0.51849917  0.60544529     1.09070
C302        C  0.37956850  0.34352255  0.62676073     1.08950
O303        O  0.52368050  0.26871657  0.61686424    -0.80640
O304        O  0.60886731  0.38901519  0.60308209    -0.80720
O305        O  0.55194926  0.40489231  0.68865648    -0.80650
O306        O  0.53423724  0.33293371  0.56075045    -0.80630
O307        O  0.57222131  0.40968019  0.54290494    -0.80680
O308        O  0.56850137  0.32188420  0.66969678    -0.80650
O309        O  0.45182516  0.27675290  0.58770057    -0.80610
O310        O  0.59965901  0.45420021  0.63940828    -0.80680
Co311      Co  0.49223962  0.31310812  0.65104385     1.51530
Co312      Co  0.53990778  0.40878638  0.58500311     1.51690
Co313      Co  0.51809668  0.44439236  0.65449206     1.51570
Co314      Co  0.46658681  0.35908203  0.58541626     1.51470
O315        O  0.50506106  0.38077283  0.62516857    -1.42570
C316        C  0.49107150  0.24801662  0.59703602     1.08980
C317        C  0.62877136  0.41794404  0.62511214     1.09070
C318        C  0.57935037  0.36175039  0.68868457     1.09000
C319        C  0.56130540  0.35836308  0.53919539     1.08980
O320        O  0.46917818  0.88205465  0.69545986    -0.80640
O321        O  0.48020233  0.93033078  0.56449687    -0.80660
O322        O  0.49485426  0.00005731  0.61711268    -0.80670
O323        O  0.39897473  0.88464913  0.61754317    -0.80610
O324        O  0.56409104  0.98835227  0.58533911    -0.80740
O325        O  0.41194960  0.82018619  0.65236722    -0.80650
O326        O  0.42232038  0.86023588  0.55499954    -0.80640
O327        O  0.45408355  0.95987276  0.67153097    -0.80680
C328        C  0.44771681  0.92875660  0.69474564     1.09050
C329        C  0.44081314  0.90854137  0.54835086     1.08940
C330        C  0.52654623  0.01912028  0.59620906     1.09070
C331        C  0.37911888  0.85088337  0.63744874     1.08950
O332        O  0.52118721  0.77513894  0.63237315    -0.80640
O333        O  0.61752393  0.89002318  0.60794657    -0.80720
O334        O  0.56328922  0.93179218  0.68896381    -0.80650
O335        O  0.52807178  0.82803188  0.56915618    -0.80630
O336        O  0.57917655  0.89141752  0.54538609    -0.80680
O337        O  0.57386663  0.84376285  0.67745623    -0.80650
O338        O  0.44963494  0.78102988  0.60200490    -0.80610
O339        O  0.60787950  0.96673943  0.63548413    -0.80680
Co340      Co  0.49579936  0.83233548  0.66199913     1.51530
Co341      Co  0.54857383  0.90490823  0.58743152     1.51690
Co342      Co  0.52791838  0.96186155  0.65147646     1.51570
Co343      Co  0.46406616  0.86248794  0.59381079     1.51470
O344        O  0.51055057  0.89054297  0.62916146    -1.42570
C345        C  0.48771044  0.75263418  0.61335426     1.08980
C346        C  0.63710284  0.92633796  0.62658587     1.09070
C347        C  0.58856236  0.88758147  0.69248231     1.09000
C348        C  0.55472552  0.84394359  0.54465359     1.08980
O349        O  0.00703517  0.06040522  0.30018429    -0.80640
O350        O  0.05892107  0.13148507  0.44555188    -0.80660
O351        O  0.11043088  0.19630482  0.34859334    -0.80670
O352        O  0.94648151  0.01918131  0.38807368    -0.80610
O353        O  0.12599090  0.15750341  0.39358076    -0.80740
O354        O  0.02276054  0.02492415  0.36068642    -0.80650
O355        O  0.00228124  0.05929075  0.43647261    -0.80640
O356        O  0.07408140  0.10440569  0.32496180    -0.80680
C357        C  0.05769357  0.07733859  0.30090234     1.09050
C358        C  0.03878417  0.08395202  0.45250691     1.08940
C359        C  0.14337924  0.17407440  0.36720133     1.09070
C360        C  0.98831086  0.99625749  0.37643108     1.08950
O361        O  0.91238683  0.06884041  0.34363040    -0.80640
O362        O  0.06177033  0.25508242  0.38455235    -0.80720
O363        O  0.03478977  0.19834088  0.30040971    -0.80650
O364        O  0.93830246  0.15121181  0.44408351    -0.80630
O365        O  0.98546999  0.21489458  0.42122467    -0.80680
O366        O  0.95946932  0.15523931  0.31787914    -0.80650
O367        O  0.88985891  0.12170941  0.38382704    -0.80610
O368        O  0.99200853  0.23638857  0.35555948    -0.80680
Co369      Co  0.99440482  0.09241268  0.34146712     1.51530
Co370      Co  0.05589696  0.18535573  0.40976235     1.51690
Co371      Co  0.03114989  0.16872940  0.34205748     1.51570
Co372      Co  0.94780563  0.09257757  0.41022837     1.51470
O373        O  0.00890489  0.13242257  0.38259052    -1.42570
C374        C  0.87606921  0.09496715  0.35934885     1.08980
C375        C  0.02009095  0.27169376  0.37055683     1.09070
C376        C  0.98387593  0.18558511  0.29718035     1.09000
C377        C  0.96239708  0.19805572  0.44510137     1.08980
O378        O  0.96852115  0.55719907  0.29543827    -0.80640
O379        O  0.03711083  0.57442847  0.42352675    -0.80660
O380        O  0.07950548  0.69725157  0.34385744    -0.80670
O381        O  0.91602020  0.52161947  0.38637137    -0.80610
O382        O  0.09393513  0.62925257  0.37499151    -0.80740
O383        O  0.98991233  0.52634406  0.35531632    -0.80650
O384        O  0.94905473  0.57555369  0.43821830    -0.80640
O385        O  0.03731002  0.60970152  0.31380810    -0.80680
C386        C  0.01800116  0.57588096  0.29312453     1.09050
C387        C  0.99697157  0.55742964  0.44090033     1.08940
C388        C  0.11283585  0.66449702  0.35582745     1.09070
C389        C  0.95826968  0.49923267  0.37355733     1.08950
O390        O  0.88182122  0.56080693  0.33714452    -0.80640
O391        O  0.03946793  0.73248560  0.39393213    -0.80720
O392        O  0.99688200  0.70925828  0.29855745    -0.80650
O393        O  0.90389593  0.67610666  0.42167315    -0.80630
O394        O  0.98873809  0.67551534  0.44087274    -0.80680
O395        O  0.92595842  0.65492214  0.31206778    -0.80650
O396        O  0.86142241  0.62679853  0.36875533    -0.80610
O397        O  0.97119902  0.73640340  0.36007707    -0.80680
Co398      Co  0.96132916  0.59067768  0.33555812     1.51530
Co399      Co  0.03755406  0.65078281  0.40613612     1.51690
Co400      Co  0.99905857  0.67219143  0.33817042     1.51570
Co401      Co  0.91005654  0.60231951  0.40162616     1.51470
O402        O  0.97651589  0.62927695  0.37634981    -1.42570
C403        C  0.84596651  0.59227273  0.34844600     1.08980
C404        C  0.00305081  0.75977589  0.37972223     1.09070
C405        C  0.94783236  0.69107172  0.29336105     1.09000
C406        C  0.93955752  0.69205108  0.44165921     1.08980
O407        O  0.45157091  0.08011479  0.32445392    -0.80640
O408        O  0.51380041  0.07231117  0.44924377    -0.80660
O409        O  0.49305736  0.00726975  0.36954487    -0.80670
O410        O  0.39228849  0.11551523  0.37634072    -0.80610
O411        O  0.56216138  0.01169870  0.40255675    -0.80740
O412        O  0.41340702  0.17785728  0.34250882    -0.80650
O413        O  0.43197050  0.07084979  0.42744478    -0.80640
O414        O  0.51513433  0.02529102  0.30665048    -0.80680
C415        C  0.46803385  0.04632952  0.30340935     1.09050
C416        C  0.46359645  0.05446605  0.44818896     1.08940
C417        C  0.52462561  0.98393564  0.38791289     1.09070
C418        C  0.37664880  0.14827116  0.35619990     1.08950
O419        O  0.52100096  0.22193101  0.35672993    -0.80640
O420        O  0.62414675  0.11273086  0.38266118    -0.80720
O421        O  0.56432590  0.12600265  0.31683093    -0.80650
O422        O  0.48755343  0.17684163  0.44405294    -0.80630
O423        O  0.57480088  0.17083497  0.42886240    -0.80680
O424        O  0.49760431  0.17296644  0.29760996    -0.80650
O425        O  0.45126203  0.22225509  0.39126897    -0.80610
O426        O  0.60458244  0.04514266  0.35022480    -0.80680
Co427      Co  0.49175689  0.15045630  0.34101914     1.51530
Co428      Co  0.56617139  0.09384778  0.41367609     1.51690
Co429      Co  0.52502346  0.06787334  0.34527883     1.51570
Co430      Co  0.44375103  0.14398097  0.40807386     1.51470
O431        O  0.50860221  0.11737749  0.38268602    -1.42570
C432        C  0.48927501  0.24774008  0.37524222     1.08980
C433        C  0.63978906  0.07950126  0.36187075     1.09070
C434        C  0.54327305  0.14963275  0.29329855     1.09000
C435        C  0.53792167  0.19423229  0.44482788     1.08980
O436        O  0.41893286  0.60040552  0.31807938    -0.80640
O437        O  0.49511169  0.56616095  0.43881075    -0.80660
O438        O  0.46552368  0.50990104  0.35559428    -0.80670
O439        O  0.36483669  0.62876305  0.37495830    -0.80610
O440        O  0.53671846  0.51375558  0.38790276    -0.80740
O441        O  0.38775606  0.69547314  0.34382513    -0.80650
O442        O  0.40944149  0.57003190  0.42134126    -0.80640
O443        O  0.47897813  0.55137511  0.29333042    -0.80680
C444        C  0.43355594  0.57681079  0.29274638     1.09050
C445        C  0.44406459  0.55083863  0.43984069     1.08940
C446        C  0.49836477  0.48618761  0.37353416     1.09070
C447        C  0.35032139  0.66429194  0.35596236     1.08950
O448        O  0.50078942  0.72622297  0.35782778    -0.80640
O449        O  0.59724660  0.61617925  0.37070938    -0.80720
O450        O  0.53582307  0.64349910  0.31616309    -0.80650
O451        O  0.47017200  0.66606603  0.44192811    -0.80630
O452        O  0.55468953  0.66897899  0.42284916    -0.80680
O453        O  0.47360062  0.69441536  0.29631593    -0.80650
O454        O  0.43522245  0.72757441  0.39459443    -0.80610
O455        O  0.57378570  0.55219332  0.33658387    -0.80680
Co456      Co  0.46382300  0.66317843  0.33847499     1.51530
Co457      Co  0.54343240  0.59366239  0.40323828     1.51690
Co458      Co  0.49470400  0.57804450  0.33638531     1.51570
Co459      Co  0.42199873  0.64605413  0.40601870     1.51470
O460        O  0.48118746  0.61939935  0.37686003    -1.42570
C461        C  0.47521940  0.75145559  0.37917274     1.08980
C462        C  0.61091300  0.58330860  0.34915045     1.09070
C463        C  0.51909524  0.66994807  0.29286902     1.09000
C464        C  0.51943628  0.68565857  0.44268565     1.08980
C465        C  0.50859598  0.84002852  0.35695111    -0.21810
C466        C  0.49014577  0.81060152  0.38332665    -0.09850
C467        C  0.48943734  0.83775209  0.41248105     0.29010
C468        C  0.50713098  0.89340867  0.41488494    -0.21810
C469        C  0.52115504  0.92335259  0.38796281    -0.09860
C470        C  0.52311157  0.89572180  0.35910843     0.29010
F471        F  0.53834003  0.92300168  0.33273526    -0.20380
H472        H  0.51019276  0.82020857  0.33421512     0.17380
H473        H  0.50782925  0.91354753  0.43744618     0.17390
F474        F  0.47136779  0.81091823  0.43838567    -0.20370
C475        C  0.44325484  0.33770067  0.37388991    -0.21810
C476        C  0.49221339  0.30865183  0.37600901    -0.09850
C477        C  0.54307899  0.33829787  0.37810216     0.29010
C478        C  0.54458973  0.39606433  0.37848489    -0.21810
C479        C  0.49567408  0.42519420  0.37550149    -0.09860
C480        C  0.44496363  0.39528979  0.37287456     0.29010
F481        F  0.39689678  0.42174202  0.36969791    -0.20380
H482        H  0.40366129  0.31561395  0.37204467     0.17380
H483        H  0.58425732  0.41805672  0.38014981     0.17390
F484        F  0.59110759  0.31142094  0.38023794    -0.20370
C485        C  0.75811535  0.53957965  0.33333924    -0.21810
C486        C  0.78682189  0.58981377  0.33976020    -0.09850
C487        C  0.75650624  0.63788028  0.34310090     0.29010
C488        C  0.69912893  0.63521536  0.34233222    -0.21810
C489        C  0.66993181  0.58459057  0.33943928    -0.09860
C490        C  0.69967167  0.53678732  0.33341619     0.29010
F491        F  0.67268169  0.48707819  0.33070037    -0.20380
H492        H  0.78057019  0.50198836  0.33093920     0.17380
H493        H  0.67720280  0.67274468  0.34655105     0.17390
F494        F  0.78204557  0.68731654  0.34957755    -0.20370
C495        C  0.20095416  0.61641715  0.35011422    -0.21810
C496        C  0.17320936  0.66591213  0.34852571    -0.09850
C497        C  0.20475970  0.71529324  0.34414608     0.29010
C498        C  0.26324012  0.71504706  0.34409647    -0.21810
C499        C  0.29053539  0.66558074  0.34832241    -0.09860
C500        C  0.25855255  0.61603418  0.34983371     0.29010
F501        F  0.28305599  0.56695678  0.35258958    -0.20380
H502        H  0.17784104  0.57774071  0.35300572     0.17380
H503        H  0.28687945  0.75367812  0.34289146     0.17390
F504        F  0.17936733  0.76400675  0.34254248    -0.20370
C505        C  0.78882013  0.04140759  0.34437682    -0.21810
C506        C  0.81654369  0.09203865  0.35122488    -0.09850
C507        C  0.78511211  0.13892946  0.35576482     0.29010
C508        C  0.72745955  0.13453924  0.35607930    -0.21810
C509        C  0.69930618  0.08323465  0.35247255    -0.09860
C510        C  0.73039089  0.03686502  0.34508602     0.29010
F511        F  0.70482430  0.98663664  0.34141487    -0.20380
H512        H  0.81225450  0.00463506  0.34099434     0.17380
H513        H  0.70466932  0.17120990  0.36119455     0.17390
F514        F  0.81020597  0.18869756  0.36190120    -0.20370
C515        C  0.29345843  0.20252568  0.34312383    -0.21810
C516        C  0.31647078  0.15246194  0.35127808    -0.09850
C517        C  0.28073139  0.10806984  0.36011999     0.29010
C518        C  0.22422654  0.11539309  0.36402620    -0.21810
C519        C  0.20172590  0.16643830  0.35836538    -0.09860
C520        C  0.23610281  0.20941565  0.34641533     0.29010
F521        F  0.21503672  0.25909380  0.34036782    -0.20380
H522        H  0.32008514  0.23722562  0.33626982     0.17380
H523        H  0.19804368  0.08137774  0.37237664     0.17390
F524        F  0.30081276  0.05810645  0.36665455    -0.20370
C525        C  0.04886006  0.85396666  0.38145297    -0.21810
C526        C  0.00046816  0.82022402  0.38323613    -0.09850
C527        C  0.94877066  0.84493673  0.38408735     0.29010
C528        C  0.94555566  0.90211453  0.38274734    -0.21810
C529        C  0.99364711  0.93594681  0.37952469    -0.09860
C530        C  0.04558134  0.91138360  0.37919690     0.29010
F531        F  0.09303356  0.94274222  0.37662280    -0.20380
H532        H  0.08906521  0.83569012  0.38030338     0.17380
H533        H  0.90507552  0.91986767  0.38316473     0.17390
F534        F  0.90117317  0.81357779  0.38583212    -0.20370
C535        C  0.94734767  0.34318434  0.36985071    -0.21810
C536        C  0.00321477  0.32979914  0.37332401    -0.09850
C537        C  0.04233003  0.37234063  0.38008705     0.29010
C538        C  0.02630083  0.42701025  0.38183101    -0.21810
C539        C  0.97082890  0.44060051  0.37766212    -0.09860
C540        C  0.93111535  0.39805922  0.37229604     0.29010
F541        F  0.87744716  0.40981473  0.36752688    -0.20380
H542        H  0.91625157  0.31112280  0.36503513     0.17380
H543        H  0.05771192  0.45924009  0.38566285     0.17390
F544        F  0.09658460  0.36149134  0.38360371    -0.20370
C545        C  0.42711704  0.00086999  0.52808456    -0.21810
C546        C  0.42135246  0.94373915  0.52280593    -0.09850
C547        C  0.41649131  0.92495740  0.49179941     0.29010
C548        C  0.42408144  0.96254085  0.46701237    -0.21810
C549        C  0.44095196  0.01775280  0.47304593    -0.09860
C550        C  0.43937038  0.03716284  0.50380087     0.29010
F551        F  0.45251799  0.09073677  0.51052832    -0.20380
H552        H  0.42891502  0.01632626  0.55153153     0.17380
H553        H  0.42104636  0.94779374  0.44321348     0.17390
F554        F  0.40982121  0.87037609  0.48544508    -0.20370
C555        C  0.50297863  0.77134773  0.51610627    -0.21810
C556        C  0.55094588  0.80567552  0.51712138    -0.09850
C557        C  0.59105867  0.79978494  0.49320726     0.29010
C558        C  0.58232936  0.75996019  0.46902062    -0.21810
C559        C  0.53336510  0.72607287  0.46838177    -0.09860
C560        C  0.49412835  0.73275260  0.49263252     0.29010
F561        F  0.44599631  0.70213783  0.49403234    -0.20380
H562        H  0.47092992  0.77407874  0.53387112     0.17380
H563        H  0.61331563  0.75609704  0.45073159     0.17390
F564        F  0.63874749  0.83097364  0.49362405    -0.20370
C565        C  0.40823231  0.42616187  0.48898167    -0.21810
C566        C  0.41929244  0.44845747  0.51872531    -0.09850
C567        C  0.42530017  0.50616542  0.52206500     0.29010
C568        C  0.42915452  0.53952257  0.49597752    -0.21810
C569        C  0.42488566  0.51659015  0.46611295    -0.09860
C570        C  0.41083120  0.46026578  0.46268676     0.29010
F571        F  0.40438355  0.43759518  0.43395654    -0.20380
H572        H  0.40296462  0.38207204  0.48570915     0.17380
H573        H  0.43891884  0.58311272  0.49903985     0.17390
F574        F  0.43264312  0.53018972  0.55041577    -0.20370
C575        C  0.59656139  0.27391386  0.51417728    -0.21810
C576        C  0.57375738  0.32591108  0.51068835    -0.09850
C577        C  0.54452921  0.33596645  0.48333022     0.29010
C578        C  0.53383440  0.29333587  0.46157190    -0.21810
C579        C  0.55413248  0.24061074  0.46602365    -0.09860
C580        C  0.58764843  0.23192147  0.49188440     0.29010
F581        F  0.60766570  0.18142475  0.49701461    -0.20380
H582        H  0.61772088  0.26450319  0.53546254     0.17380
H583        H  0.50794011  0.30097558  0.44183304     0.17390
F584        F  0.52134376  0.38525835  0.47927970    -0.20370
C585        C  0.45643849  0.59947486  0.60608094    -0.21810
C586        C  0.50964873  0.57853098  0.60125935    -0.09850
C587        C  0.55466395  0.61605462  0.59699438     0.29010
C588        C  0.54678770  0.67300944  0.59947737    -0.21810
C589        C  0.49377386  0.69357477  0.60532752    -0.09860
C590        C  0.44836543  0.65622166  0.60759652     0.29010
F591        F  0.39688073  0.67435671  0.61387906    -0.20380
H592        H  0.42098076  0.57160824  0.60972647     0.17380
H593        H  0.58247000  0.70116217  0.59784098     0.17390
F594        F  0.60669136  0.59779550  0.59291620    -0.20370
C595        C  0.46365500  0.09639252  0.58972029    -0.21810
C596        C  0.51769768  0.07653708  0.58666083    -0.09850
C597        C  0.56194780  0.11446365  0.58155258     0.29010
C598        C  0.55242921  0.17115324  0.58225371    -0.21810
C599        C  0.49856910  0.19050653  0.58701585    -0.09860
C600        C  0.45392759  0.15251431  0.58902737     0.29010
F601        F  0.40174847  0.16964576  0.59435854    -0.20380
H602        H  0.42888145  0.06858253  0.59504035     0.17380
H603        H  0.58754879  0.20006474  0.58110164     0.17390
F604        F  0.61471049  0.09731135  0.57966746    -0.20370
C605        C  0.00802734  0.03397580  0.53270294    -0.21810
C606        C  0.04230095  0.98926904  0.53477749    -0.09850
C607        C  0.08304652  0.98120065  0.51149984     0.29010
C608        C  0.08630415  0.01569856  0.48535376    -0.21810
C609        C  0.04992518  0.05909524  0.48278526    -0.09860
C610        C  0.01181175  0.06847117  0.50708433     0.29010
F611        F  0.97341636  0.10695786  0.50426383    -0.20380
H612        H  0.97578833  0.04013958  0.55003273     0.17380
H613        H  0.11440418  0.00633463  0.46628666     0.17390
F614        F  0.11575654  0.93708190  0.51254048    -0.20370
C615        C  0.94650740  0.78193306  0.46809327    -0.21810
C616        C  0.92557629  0.72748795  0.46824457    -0.09850
C617        C  0.91033787  0.70301505  0.49684680     0.29010
C618        C  0.91937783  0.73169744  0.52498675    -0.21810
C619        C  0.94490985  0.78441175  0.52474195    -0.09860
C620        C  0.95620427  0.81025865  0.49606678     0.29010
F621        F  0.97946229  0.86193174  0.49515686    -0.20380
H622        H  0.96005327  0.80080399  0.44644314     0.17380
H623        H  0.91051073  0.71124417  0.54689716     0.17390
F624        F  0.89249803  0.64944159  0.49768510    -0.20370
C625        C  0.78494343  0.95987701  0.65186059    -0.21810
C626        C  0.80686393  0.90713102  0.65068934    -0.09850
C627        C  0.77111596  0.86118362  0.64550158     0.29010
C628        C  0.71562754  0.86819447  0.63891649    -0.21810
C629        C  0.69442945  0.92105054  0.63741222    -0.09860
C630        C  0.72890904  0.96692598  0.64524116     0.29010
F631        F  0.70957738  0.01858116  0.64442974    -0.20380
H632        H  0.81195243  0.99583388  0.65552887     0.17380
H633        H  0.68949161  0.83208005  0.63396918     0.17390
F634        F  0.79062544  0.80949948  0.64502360    -0.20370
C635        C  0.22786334  0.81565994  0.66451252    -0.21810
C636        C  0.19797212  0.83820949  0.63993696    -0.09850
C637        C  0.22871889  0.86224650  0.61503080     0.29010
C638        C  0.28635372  0.86553099  0.61513901    -0.21810
C639        C  0.31686006  0.84463380  0.63971551    -0.09860
C640        C  0.28684333  0.81867135  0.66441061     0.29010
F641        F  0.31415047  0.79744564  0.68865422    -0.20380
H642        H  0.20573288  0.79692158  0.68402391     0.17380
H643        H  0.30722525  0.88455651  0.59528169     0.17390
F644        F  0.20315633  0.88265691  0.58987029    -0.20370
C645        C  0.00398434  0.51664926  0.52396634    -0.21810
C646        C  0.97982858  0.46296745  0.52331729    -0.09850
C647        C  0.96897398  0.43803760  0.49412885     0.29010
C648        C  0.98025301  0.46721638  0.46653774    -0.21810
C649        C  0.00397122  0.52090786  0.46747101    -0.09860
C650        C  0.01597156  0.54519258  0.49648544     0.29010
F651        F  0.03541208  0.59824179  0.49833327    -0.20380
H652        H  0.01332577  0.53706792  0.54593268     0.17380
H653        H  0.96810332  0.44880228  0.44447679     0.17390
F654        F  0.94697180  0.38596940  0.49216898    -0.20370
C655        C  0.96980474  0.24041594  0.52987311    -0.21810
C656        C  0.01840050  0.27458976  0.52955387    -0.09850
C657        C  0.04527146  0.28601612  0.50123513     0.29010
C658        C  0.02481495  0.26248624  0.47392160    -0.21810
C659        C  0.97678536  0.22745176  0.47417657    -0.09860
C660        C  0.94848115  0.21788245  0.50230723     0.29010
F661        F  0.90057684  0.18692700  0.50317616    -0.20380
H662        H  0.94691158  0.23280851  0.55134761     0.17380
H663        H  0.04771959  0.27098076  0.45251872     0.17390
F664        F  0.09112139  0.31996492  0.49990745    -0.20370
C665        C  0.99088148  0.65330792  0.63693305    -0.21810
C666        C  0.02355301  0.68321026  0.61523726    -0.09850
C667        C  0.06039377  0.65515196  0.59557530     0.29010
C668        C  0.06683182  0.59871623  0.59925899    -0.21810
C669        C  0.03677900  0.56990146  0.62254802    -0.09860
C670        C  0.99754640  0.59755871  0.64079583     0.29010
F671        F  0.96633111  0.57136593  0.66307574    -0.20380
H672        H  0.96165525  0.67345856  0.65222323     0.17380
H673        H  0.09628840  0.57791097  0.58444115     0.17390
F674        F  0.09136587  0.68227175  0.57358799    -0.20370
C675        C  0.93164956  0.08644877  0.60738875    -0.21810
C676        C  0.97300264  0.06165280  0.62467255    -0.09850
C677        C  0.00992893  0.09526397  0.64208342     0.29010
C678        C  0.00370703  0.15190531  0.64332827    -0.21810
C679        C  0.96097702  0.17642827  0.62715036    -0.09860
C680        C  0.92575797  0.14335292  0.60844696     0.29010
F681        F  0.88454291  0.16550359  0.59208296    -0.20380
H682        H  0.90269663  0.06167626  0.59364242     0.17380
H683        H  0.03226578  0.17659627  0.65738445     0.17390
F684        F  0.05118429  0.07359651  0.65864659    -0.20370
C685        C  0.70095078  0.35299197  0.63799543    -0.21810
C686        C  0.68681120  0.40774236  0.63279412    -0.09850
C687        C  0.72924558  0.44791928  0.62839680     0.29010
C688        C  0.78477752  0.43260899  0.62733435    -0.21810
C689        C  0.79855291  0.37735786  0.63142787    -0.09860
C690        C  0.75619593  0.33798005  0.63780674     0.29010
F691        F  0.76787670  0.28424444  0.64141512    -0.20380
H692        H  0.66881017  0.32111909  0.64070936     0.17380
H693        H  0.81701669  0.46365570  0.62267060     0.17390
F694        F  0.71685528  0.50084445  0.62279524    -0.20370
C695        C  0.24605562  0.41492472  0.64055799    -0.21810
C696        C  0.20674459  0.37462890  0.63128278    -0.09850
C697        C  0.22415522  0.32076565  0.62486069     0.29010
C698        C  0.28048712  0.30844899  0.62653555    -0.21810
C699        C  0.32012075  0.34995578  0.63389284    -0.09860
C700        C  0.30210408  0.40328562  0.64103772     0.29010
F701        F  0.33924995  0.44496276  0.64743706    -0.20380
H702        H  0.23377968  0.45651822  0.64566075     0.17380
H703        H  0.29345612  0.26767975  0.62001953     0.17390
F704        F  0.18694379  0.28042723  0.61627748    -0.20370
C705        C  0.69867357  0.94215678  0.74900461    -0.21810
C706        C  0.70114401  0.89841813  0.76983379    -0.09850
C707        C  0.67076705  0.84889976  0.76278428     0.29010
C708        C  0.63802378  0.84395106  0.73614590    -0.21810
C709        C  0.63273436  0.88869409  0.71640757    -0.09860
C710        C  0.66395789  0.93787829  0.72295263     0.29010
F711        F  0.65925102  0.98277676  0.70482304    -0.20380
H712        H  0.72119764  0.98057982  0.75375784     0.17380
H713        H  0.61397927  0.80613415  0.73209460     0.17390
F714        F  0.67148577  0.80508815  0.78205139    -0.20370
C715        C  0.86811959  0.78454888  0.72619795    -0.21810
C716        C  0.92598531  0.78899940  0.73034570    -0.09850
C717        C  0.94553815  0.78869516  0.76113396     0.29010
C718        C  0.90810990  0.78958130  0.78678701    -0.21810
C719        C  0.85018641  0.78801448  0.78252461    -0.09860
C720        C  0.83080106  0.78308749  0.75178184     0.29010
F721        F  0.77566661  0.78245389  0.74623184    -0.20380
H722        H  0.85148672  0.78525507  0.70288688     0.17380
H723        H  0.92452465  0.79400565  0.81009126     0.17390
F724        F  0.00072266  0.79247619  0.76650254    -0.20370
C725        C  0.62537579  0.34766470  0.77016548    -0.21810
C726        C  0.66685765  0.39015847  0.77268830    -0.09850
C727        C  0.68604447  0.41556154  0.74514365     0.29010
C728        C  0.66185612  0.40087319  0.71639191    -0.21810
C729        C  0.61932970  0.35952858  0.71429833    -0.09860
C730        C  0.60216851  0.33249366  0.74154937     0.29010
F731        F  0.55873260  0.29542099  0.74106498    -0.20380
H732        H  0.60964452  0.32625694  0.79064307     0.17380
H733        H  0.67380605  0.42453384  0.69604374     0.17390
F734        F  0.72649953  0.45571985  0.74604398    -0.20370
C735        C  0.82437904  0.36093686  0.75041770    -0.21810
C736        C  0.85003489  0.34806255  0.77831075    -0.09850
C737        C  0.90778764  0.35899820  0.78068509     0.29010
C738        C  0.93816133  0.38448063  0.75635505    -0.21810
C739        C  0.91194337  0.39983878  0.72895855    -0.09860
C740        C  0.85445767  0.38717254  0.72626174     0.29010
F741        F  0.82681455  0.40077382  0.70030694    -0.20380
H742        H  0.78014408  0.35414550  0.74811993     0.17380
H743        H  0.98241152  0.39147928  0.75883472     0.17390
F744        F  0.93448605  0.34721763  0.80730977    -0.20370
C745        C  0.70806636  0.58759880  0.90442542    -0.21810
C746        C  0.76055759  0.56495539  0.90187179    -0.09850
C747        C  0.80777530  0.60028350  0.90083965     0.29010
C748        C  0.80219856  0.65741992  0.90062460    -0.21810
C749        C  0.74953258  0.68031137  0.90212229    -0.09860
C750        C  0.70250255  0.64479040  0.90523620     0.29010
F751        F  0.65092906  0.66507193  0.90639749    -0.20380
H752        H  0.67119162  0.56092309  0.90440984     0.17380
H753        H  0.83903704  0.68383193  0.89808871     0.17390
F754        F  0.85891395  0.57950737  0.89733378    -0.20370
C755        C  0.70553994  0.07801480  0.88980721    -0.21810
C756        C  0.76112192  0.06228638  0.88937995    -0.09850
C757        C  0.80310357  0.10354550  0.89243543     0.29010
C758        C  0.78979249  0.15926940  0.89387513    -0.21810
C759        C  0.73439510  0.17512378  0.89330243    -0.09860
C760        C  0.69219681  0.13383250  0.89209166     0.29010
F761        F  0.63836812  0.14762115  0.89084614    -0.20380
H762        H  0.67241326  0.04702225  0.88769662     0.17380
H763        H  0.82303059  0.19040551  0.89418920     0.17390
F764        F  0.85719896  0.09032590  0.89173344    -0.20370
C765        C  0.09033464  0.88848696  0.78766558    -0.21810
C766        C  0.14614989  0.87738861  0.78138379    -0.09850
C767        C  0.16670016  0.88364237  0.75092791     0.29010
C768        C  0.13290173  0.90188156  0.72752473    -0.21810
C769        C  0.07684005  0.91295609  0.73343761    -0.09860
C770        C  0.05571370  0.90624625  0.76391452     0.29010
F771        F  0.00153806  0.91459179  0.77046092    -0.20380
H772        H  0.07374506  0.88390966  0.81092426     0.17380
H773        H  0.15051650  0.90563985  0.70423415     0.17390
F774        F  0.22033430  0.87328015  0.74396675    -0.20370
C775        C  0.41950020  0.94107149  0.77948835    -0.21810
C776        C  0.36242645  0.94700944  0.77936915    -0.09850
C777        C  0.33568602  0.96020758  0.75168910     0.29010
C778        C  0.36512374  0.96037292  0.72347672    -0.21810
C779        C  0.42103386  0.94761023  0.72325553    -0.09860
C780        C  0.44895523  0.94149564  0.75149376     0.29010
F781        F  0.50365469  0.93051987  0.75166318    -0.20380
H782        H  0.44025060  0.93109913  0.80074635     0.17380
H783        H  0.34338363  0.96529526  0.70181755     0.17390
F784        F  0.28044396  0.96835702  0.75171179    -0.20370
C785        C  0.49166179  0.88836129  0.85337393    -0.21810
C786        C  0.45608133  0.84159438  0.85230907    -0.09850
C787        C  0.48000087  0.78944348  0.84955880     0.29010
C788        C  0.53821233  0.78459155  0.85057861    -0.21810
C789        C  0.57337526  0.83169257  0.85377998    -0.09860
C790        C  0.54916690  0.88372178  0.85346516     0.29010
F791        F  0.58131038  0.93063272  0.85539207    -0.20380
H792        H  0.47477232  0.92895073  0.85524739     0.17380
H793        H  0.55532236  0.74407756  0.85115877     0.17390
F794        F  0.44714923  0.74298680  0.84869181    -0.20370
C795        C  0.04728207  0.96037564  0.85581382    -0.21810
C796        C  0.07423628  0.91609168  0.86955611    -0.09850
C797        C  0.04172661  0.86977007  0.87866501     0.29010
C798        C  0.98456890  0.86835337  0.87494689    -0.21810
C799        C  0.95690438  0.91319755  0.86267353    -0.09860
C800        C  0.98908704  0.95897606  0.85233393     0.29010
F801        F  0.96443987  0.00291364  0.84009887    -0.20380
H802        H  0.07115620  0.99637947  0.84814139     0.17380
H803        H  0.96151963  0.83191526  0.88279975     0.17390
F804        F  0.06477790  0.82550002  0.89161752    -0.20370
C805        C  0.10177643  0.31930797  0.75033409    -0.21810
C806        C  0.09418057  0.35386029  0.72535711    -0.09850
C807        C  0.12105515  0.40689141  0.72541784     0.29010
C808        C  0.15502896  0.42452105  0.74996319    -0.21810
C809        C  0.16193431  0.39024573  0.77519262    -0.09860
C810        C  0.13537756  0.33695564  0.77493387     0.29010
F811        F  0.14163342  0.30136278  0.79861311    -0.20380
H812        H  0.08210680  0.27856211  0.75070771     0.17380
H813        H  0.17364831  0.46572479  0.74992263     0.17390
F814        F  0.11223757  0.44337248  0.70261800    -0.20370
C815        C  0.34236664  0.36636512  0.71722756    -0.21810
C816        C  0.39635585  0.38987924  0.71926228    -0.09850
C817        C  0.42187568  0.39172876  0.74837198     0.29010
C818        C  0.39418629  0.37101320  0.77461497    -0.21810
C819        C  0.33929650  0.34924053  0.77299427    -0.09860
C820        C  0.31347610  0.34726600  0.74385551     0.29010
F821        F  0.26064123  0.32717481  0.74101035    -0.20380
H822        H  0.32322342  0.36030333  0.69497864     0.17380
H823        H  0.41576104  0.37327157  0.79660384     0.17390
F824        F  0.47540673  0.41012103  0.75101684    -0.20370
C825        C  0.48008891  0.42383444  0.88018034    -0.21810
C826        C  0.43958648  0.38139762  0.87841069    -0.09850
C827        C  0.45584745  0.32656463  0.87487756     0.29010
C828        C  0.51203550  0.31446132  0.87412447    -0.21810
C829        C  0.55248057  0.35670147  0.87770689    -0.09860
C830        C  0.53607168  0.41170256  0.88025944     0.29010
F831        F  0.57421711  0.45382381  0.88319642    -0.20380
H832        H  0.46831503  0.46623802  0.88273875     0.17380
H833        H  0.52382444  0.27201143  0.87205514     0.17390
F834        F  0.41736339  0.28472531  0.87223395    -0.20370
C835        C  0.01182937  0.32654938  0.88713959    -0.21810
C836        C  0.04964065  0.36871453  0.87887485    -0.09850
C837        C  0.03114243  0.42140697  0.87236260     0.29010
C838        C  0.97471532  0.43164946  0.87425778    -0.21810
C839        C  0.93668458  0.38975522  0.88342368    -0.09860
C840        C  0.95582930  0.33690039  0.88984087     0.29010
F841        F  0.92063785  0.29490896  0.89866872    -0.20380
H842        H  0.02593196  0.28591523  0.89239598     0.17380
H843        H  0.96089163  0.47236357  0.86903039     0.17390
F844        F  0.06756317  0.46253967  0.86380451    -0.20370
C845        C  0.31521715  0.60132978  0.91068547    -0.21810
C846        C  0.27501459  0.57055655  0.89369499    -0.09850
C847        C  0.23588082  0.59982482  0.87697983     0.29010
C848        C  0.23906232  0.65715506  0.87557358    -0.21810
C849        C  0.28114286  0.68821120  0.89067259    -0.09860
C850        C  0.31831646  0.65963158  0.90925848     0.29010
F851        F  0.35869103  0.68762056  0.92516846    -0.20380
H852        H  0.34590808  0.58028658  0.92375699     0.17380
H853        H  0.20894458  0.67714288  0.86153538     0.17390
F854        F  0.19512619  0.57290270  0.86073124    -0.20370
C855        C  0.18764493  0.09672382  0.91434375    -0.21810
C856        C  0.23814621  0.07430776  0.90507523    -0.09850
C857        C  0.28078679  0.10923350  0.89294118     0.29010
C858        C  0.27072659  0.16368019  0.88667998    -0.21810
C859        C  0.21912614  0.18510846  0.89368622    -0.09860
C860        C  0.17830614  0.15231613  0.90898515     0.29010
F861        F  0.12821948  0.17273029  0.91640814    -0.20380
H862        H  0.15430715  0.07060928  0.92371240     0.17380
H863        H  0.30323159  0.18910035  0.87585796     0.17390
F864        F  0.33125737  0.08999741  0.88513231    -0.20370
C865        C  0.64875205  0.51681164  0.01228378    -0.21810
C866        C  0.65103336  0.49472727  0.04238440    -0.09850
C867        C  0.65217280  0.43692069  0.04500270     0.29010
C868        C  0.65641013  0.40312002  0.01797462    -0.21810
C869        C  0.65953881  0.42638569  0.98796402    -0.09860
C870        C  0.65315607  0.48357733  0.98561244     0.29010
F871        F  0.65504878  0.50836703  0.95741550    -0.20380
H872        H  0.64746008  0.56093903  0.00927289     0.17380
H873        H  0.66164037  0.35939862  0.02066653     0.17390
F874        F  0.65434199  0.41353422  0.07350827    -0.20370
C875        C  0.81819637  0.78335260  0.04079623    -0.21810
C876        C  0.82974756  0.72740714  0.03818519    -0.09850
C877        C  0.83865306  0.70420219  0.00836566     0.29010
C878        C  0.83138272  0.73532589  0.98161259    -0.21810
C879        C  0.81389241  0.78939375  0.98434348    -0.09860
C880        C  0.80953942  0.81406950  0.01402433     0.29010
F881        F  0.79364627  0.86685607  0.01710755    -0.20380
H882        H  0.81014819  0.80174050  0.06340908     0.17380
H883        H  0.83519938  0.71596552  0.95886770     0.17390
F884        F  0.84899448  0.64989863  0.00515866    -0.20370
C885        C  0.55087841  0.63949541  0.20759573    -0.21810
C886        C  0.59972013  0.61011418  0.21080619    -0.09850
C887        C  0.62590331  0.61129336  0.23975109     0.29010
C888        C  0.60208013  0.63751662  0.26525970    -0.21810
C889        C  0.55070423  0.66264327  0.26316112    -0.09860
C890        C  0.52677848  0.66624923  0.23359693     0.29010
F891        F  0.47959352  0.69389495  0.23006275    -0.20380
H892        H  0.53197919  0.64253779  0.18498249     0.17380
H893        H  0.62298359  0.63567192  0.28732411     0.17390
F894        F  0.67507352  0.58691837  0.24340054    -0.20370
C895        C  0.94109328  0.72348501  0.23779382    -0.21810
C896        C  0.91511382  0.70883268  0.26620063    -0.09850
C897        C  0.85690997  0.70345413  0.26711096     0.29010
C898        C  0.82586945  0.70858155  0.24009248    -0.21810
C899        C  0.85171407  0.71943761  0.21116639    -0.09860
C900        C  0.90988078  0.72894622  0.21054145     0.29010
F901        F  0.93713127  0.74096403  0.18347274    -0.20380
H902        H  0.98582366  0.72772489  0.23626449     0.17380
H903        H  0.78136007  0.70197443  0.24174275     0.17390
F904        F  0.82974969  0.69135921  0.29408995    -0.20370
C905        C  0.74355279  0.03163331  0.98230909    -0.21810
C906        C  0.70721963  0.98679651  0.97636327    -0.09850
C907        C  0.66212259  0.97672563  0.99708054     0.29010
C908        C  0.65627374  0.00920454  0.02439786    -0.21810
C909        C  0.69566036  0.05149282  0.03138793    -0.09860
C910        C  0.73830189  0.06316818  0.00940251     0.29010
F911        F  0.77792741  0.10268396  0.01514029    -0.20380
H912        H  0.77849243  0.04023598  0.96677767     0.17380
H913        H  0.62377368  0.99853533  0.04113912     0.17390
F914        F  0.62702635  0.93259566  0.99250522    -0.20370
C915        C  0.86317547  0.25493904  0.02301427    -0.21810
C916        C  0.81689046  0.22160106  0.03199257    -0.09850
C917        C  0.76730376  0.22490868  0.01589997     0.29010
C918        C  0.76386873  0.26074815  0.99125989    -0.21810
C919        C  0.80878370  0.29617258  0.98301949    -0.09860
C920        C  0.85914919  0.29251148  0.99854276     0.29010
F921        F  0.90372069  0.32489299  0.99022242    -0.20380
H922        H  0.90106228  0.25428032  0.03618586     0.17380
H923        H  0.72480263  0.26228723  0.97932381     0.17390
F924        F  0.72083376  0.19649822  0.02557332    -0.20370
C925        C  0.69413813  0.93161657  0.13843903    -0.21810
C926        C  0.74681893  0.95720837  0.13466076    -0.09850
C927        C  0.79244859  0.92521007  0.12710301     0.29010
C928        C  0.78503340  0.86880459  0.12267249    -0.21810
C929        C  0.73244611  0.84318397  0.12632713    -0.09860
C930        C  0.68697227  0.87485209  0.13464147     0.29010
F931        F  0.63580795  0.85100002  0.13906554    -0.20380
H932        H  0.65834041  0.95576501  0.14379802     0.17380
H933        H  0.82101385  0.84485104  0.11744265     0.17390
F934        F  0.84384897  0.94852172  0.12265695    -0.20370
C935        C  0.74545060  0.38041219  0.18287901    -0.21810
C936        C  0.77209815  0.34528097  0.16209304    -0.09850
C937        C  0.80292152  0.36688630  0.13671845     0.29010
C938        C  0.79925730  0.42160546  0.12921412    -0.21810
C939        C  0.76741948  0.45611897  0.14780820    -0.09860
C940        C  0.74356131  0.43626082  0.17598321     0.29010
F941        F  0.71347236  0.46907460  0.19501843    -0.20380
H942        H  0.72198010  0.36403140  0.20260043     0.17380
H943        H  0.81838281  0.43598801  0.10765904     0.17390
F944        F  0.83180668  0.33376778  0.11718955    -0.20370
C945        C  0.65622357  0.12785227  0.23303201    -0.21810
C946        C  0.62674231  0.11169784  0.20602154    -0.09850
C947        C  0.56845979  0.11371812  0.20728992     0.29010
C948        C  0.54106927  0.13007505  0.23511318    -0.21810
C949        C  0.57118651  0.14480735  0.26213827    -0.09860
C950        C  0.62916325  0.14417317  0.26044851     0.29010
F951        F  0.65999730  0.15904392  0.28560562    -0.20380
H952        H  0.70105284  0.12851698  0.23304528     0.17380
H953        H  0.49624355  0.12897311  0.23590537     0.17390
F954        F  0.53797230  0.09869013  0.18206493    -0.20370
C955        C  0.86166455  0.20069550  0.24694383    -0.21810
C956        C  0.88631411  0.19919098  0.21725845    -0.09850
C957        C  0.94410308  0.20500913  0.21400132     0.29010
C958        C  0.97702430  0.20604132  0.24063457    -0.21810
C959        C  0.95202049  0.20235078  0.27035741    -0.09860
C960        C  0.89408475  0.20298364  0.27330938     0.29010
F961        F  0.86862615  0.20234644  0.30173594    -0.20380
H962        H  0.81696810  0.19856027  0.24973119     0.17380
H963        H  0.02164223  0.20553391  0.23796340     0.17390
F964        F  0.96856567  0.20566266  0.18535242    -0.20370
C965        C  0.16413261  0.52617087  0.00326013    -0.21810
C966        C  0.17387071  0.50414734  0.03266011    -0.09850
C967        C  0.17334851  0.44659146  0.03618491     0.29010
C968        C  0.16746185  0.41211664  0.01009481    -0.21810
C969        C  0.16355079  0.43476908  0.98037258    -0.09860
C970        C  0.15899605  0.49188698  0.97730364     0.29010
F971        F  0.15359937  0.51487077  0.94883103    -0.20380
H972        H  0.16252619  0.57022995  0.00009344     0.17380
H973        H  0.17036491  0.36812545  0.01283670     0.17390
F974        F  0.17974546  0.42367614  0.06455674    -0.20370
C975        C  0.22804798  0.80924764  0.03975093    -0.21810
C976        C  0.24524107  0.75481171  0.03748809    -0.09850
C977        C  0.24750293  0.72911503  0.00797900     0.29010
C978        C  0.23525393  0.75810949  0.98134844    -0.21810
C979        C  0.21954497  0.81310855  0.98332845    -0.09860
C980        C  0.21391872  0.83788691  0.01298165     0.29010
F981        F  0.19609107  0.88986375  0.01620655    -0.20380
H982        H  0.22445436  0.82914733  0.06229442     0.17380
H983        H  0.23977597  0.73776252  0.95889012     0.17390
F984        F  0.26255438  0.67605957  0.00470627    -0.20370
C985        C  0.45413842  0.59107783  0.10770689    -0.21810
C986        C  0.42161101  0.63648238  0.11117317    -0.09850
C987        C  0.44574570  0.68983340  0.11518222     0.29010
C988        C  0.50273841  0.69693462  0.11738125    -0.21810
C989        C  0.53529727  0.65118385  0.11459623    -0.09860
C990        C  0.51088661  0.59822871  0.10898191     0.29010
F991        F  0.54147654  0.55252441  0.10715974    -0.20380
H992        H  0.43552427  0.55004529  0.10526428     0.17380
H993        H  0.52120195  0.73742399  0.12202343     0.17390
F994        F  0.41402574  0.73431903  0.11955709    -0.20370
C995        C  0.93859333  0.63680007  0.13531341    -0.21810
C996        C  0.90555873  0.58882161  0.13620151    -0.09850
C997        C  0.92847767  0.53724774  0.13280318     0.29010
C998        C  0.98434445  0.53406877  0.12586712    -0.21810
C999        C  0.01651132  0.58264653  0.12186734    -0.09860
C1000       C  0.99364742  0.63423247  0.12763446     0.29010
F1001       F  0.02353566  0.68244451  0.12498846    -0.20380
H1002       H  0.92065880  0.67679985  0.13656719     0.17380
H1003       H  0.00178084  0.49400791  0.12239687     0.17390
F1004       F  0.89634348  0.49061831  0.13388118    -0.20370
C1005       C  0.03113028  0.57601533  0.23682566    -0.21810
C1006       C  0.05242006  0.56416097  0.26591518    -0.09850
C1007       C  0.10904731  0.55427077  0.26878739     0.29010
C1008       C  0.14389791  0.55650439  0.24248379    -0.21810
C1009       C  0.12292280  0.57099713  0.21343855    -0.09860
C1010       C  0.06611833  0.58076998  0.21101695     0.29010
F1011       F  0.04430547  0.59708506  0.18404356    -0.20380
H1012       H  0.98801462  0.58598417  0.23452754     0.17380
H1013       H  0.18751045  0.54900306  0.24504909     0.17390
F1014       F  0.13071123  0.54409122  0.29707308    -0.20370
C1015       C  0.39491405  0.61171197  0.20896166    -0.21810
C1016       C  0.34746067  0.64294237  0.21457923    -0.09850
C1017       C  0.32494007  0.64342249  0.24486204     0.29010
C1018       C  0.35095357  0.61715023  0.26912919    -0.21810
C1019       C  0.40046981  0.58896725  0.26437346    -0.09860
C1020       C  0.42083490  0.58433993  0.23356338     0.29010
F1021       F  0.46643053  0.55498534  0.22736734    -0.20380
H1022       H  0.41145746  0.60768075  0.18550993     0.17380
H1023       H  0.33268933  0.62044757  0.29218014     0.17390
F1024       F  0.27716310  0.66943101  0.25105551    -0.20370
C1025       C  0.39643879  0.00107250  0.01734595    -0.21810
C1026       C  0.34608508  0.01639447  0.03168773    -0.09850
C1027       C  0.29644205  0.99402349  0.01956923     0.29010
C1028       C  0.29635723  0.95997280  0.99374990    -0.21810
C1029       C  0.34511237  0.94340138  0.97921440    -0.09860
C1030       C  0.39603172  0.96392557  0.99130785     0.29010
F1031       F  0.44445121  0.95030445  0.97740548    -0.20380
H1032       H  0.43546863  0.01724197  0.02629839     0.17380
H1033       H  0.25664641  0.94784620  0.98441423     0.17390
F1034       F  0.24650820  0.00602905  0.03212326    -0.20370
C1035       C  0.28221026  0.18892706  0.99158907    -0.21810
C1036       C  0.25846646  0.20251068  0.02052037    -0.09850
C1037       C  0.25295386  0.25912755  0.02799111     0.29010
C1038       C  0.27108573  0.30048101  0.00735117    -0.21810
C1039       C  0.29327768  0.28706781  0.97814277    -0.09860
C1040       C  0.29915796  0.23063824  0.97059125     0.29010
F1041       F  0.32098703  0.21589339  0.94256610    -0.20380
H1042       H  0.28907736  0.14630378  0.98558055     0.17380
H1043       H  0.26473200  0.34308714  0.01352319     0.17390
F1044       F  0.22963326  0.27480916  0.05553018    -0.20370
C1045       C  0.24243615  0.88935145  0.13906206    -0.21810
C1046       C  0.21094286  0.91702650  0.11714494    -0.09850
C1047       C  0.16300672  0.89029095  0.10544508     0.29010
C1048       C  0.14941483  0.83569207  0.11427804    -0.21810
C1049       C  0.18269711  0.80774993  0.13544370    -0.09860
C1050       C  0.22804997  0.83661440  0.14869642     0.29010
F1051       F  0.26227771  0.81244409  0.16887147    -0.20380
H1052       H  0.27938404  0.90847959  0.14908002     0.17380
H1053       H  0.11472018  0.81421561  0.10326036     0.17390
F1054       F  0.13028687  0.91608690  0.08520368    -0.20370
C1055       C  0.20866215  0.37906461  0.15195744    -0.21810
C1056       C  0.24074889  0.41558111  0.13353091    -0.09850
C1057       C  0.28199554  0.39585468  0.11355291     0.29010
C1058       C  0.29298993  0.34043974  0.11322949    -0.21810
C1059       C  0.26365980  0.30400113  0.13316476    -0.09860
C1060       C  0.22023691  0.32334911  0.15201488     0.29010
F1061       F  0.18998456  0.28900747  0.17092679    -0.20380
H1062       H  0.17634602  0.39405084  0.16725390     0.17380
H1063       H  0.32598272  0.32654919  0.09805537     0.17390
F1064       F  0.31211968  0.43026529  0.09458304    -0.20370
C1065       C  0.56187884  0.21310071  0.10371072    -0.21810
C1066       C  0.58897767  0.22677133  0.13166675    -0.09850
C1067       C  0.55672492  0.23605668  0.15877539     0.29010
C1068       C  0.49978395  0.22376847  0.15876613    -0.21810
C1069       C  0.47444420  0.20230978  0.13183358    -0.09860
C1070       C  0.50524466  0.20022437  0.10380714     0.29010
F1071       F  0.48131876  0.18292432  0.07678327    -0.20380
H1072       H  0.58521358  0.20659200  0.08232082     0.17380
H1073       H  0.47637529  0.22728489  0.18038006     0.17390
F1074       F  0.58078255  0.25159649  0.18605581    -0.20370
C1075       C  0.04859375  0.08478462  0.13500164    -0.21810
C1076       C  0.08588826  0.11797256  0.11744069    -0.09850
C1077       C  0.06621648  0.16502033  0.10291129     0.29010
C1078       C  0.01000044  0.17726702  0.10531967    -0.21810
C1079       C  0.97257687  0.14289068  0.12215573    -0.10180
C1080       C  0.99282239  0.09687945  0.13740762     0.29010
F1081       F  0.95875615  0.06296517  0.15454785    -0.20380
H1082       H  0.06245123  0.04875566  0.14683376     0.17380
H1083       H  0.99554119  0.21294773  0.09340325     0.17390
F1084       F  0.10097560  0.19899712  0.08627837    -0.20370
C1085       C  0.15372913  0.08228087  0.28035145    -0.21810
C1086       C  0.09673592  0.07557867  0.27421273    -0.09850
C1087       C  0.07838938  0.08434976  0.24386011     0.29010
C1088       C  0.11612472  0.10209162  0.22069826    -0.21810
C1089       C  0.17284312  0.11149147  0.22725712    -0.09860
C1090       C  0.19134027  0.10035017  0.25731216     0.29010
F1091       F  0.24544646  0.10734112  0.26472362    -0.20380
H1092       H  0.16883513  0.07656618  0.30371311     0.17380
H1093       H  0.10060996  0.10953896  0.19761390     0.17390
F1094       F  0.02364666  0.08014839  0.23714911    -0.20370
C1095       C  0.39692797  0.08316293  0.27086363    -0.21810
C1096       C  0.43260099  0.03994182  0.27552124    -0.09850
C1097       C  0.43564455  0.99830015  0.25242784     0.29010
C1098       C  0.40273419  0.00083995  0.22534792    -0.21810
C1099       C  0.36844774  0.04581581  0.22104912    -0.09860
C1100       C  0.36771291  0.08735499  0.24388000     0.29010
F1101       F  0.34309625  0.13557766  0.23912393    -0.20380
H1102       H  0.39449202  0.11737006  0.28713877     0.17380
H1103       H  0.40594578  0.96953425  0.20733648     0.17390
F1104       F  0.47056630  0.95640928  0.25568583    -0.20370
loop_ 
_geom_bond_atom_site_label_1 
_geom_bond_atom_site_label_2 
_geom_bond_distance 
_geom_bond_site_symmetry_2 
_ccdc_geom_bond_type 
O1            C9   1.225       .  A
O1          Co21   1.941       .  S
O2           C10   1.252       .  A
O2          Co22   1.957       .  S
O3           C11   1.257       .  A
O3          Co23   1.946       .  S
O4           C12   1.250       .  A
O4          Co24   1.983       .  S
O5           C11   1.268       .  A
O5          Co22   1.998       .  S
O6           C12   1.262       .  A
O6          Co21   2.015       .  S
O7           C10   1.276       .  A
O7          Co24   2.038       .  S
O8            C9   1.250       .  A
O8          Co23   2.046       .  S
C9         C1089   1.484       .  S
C10        C1036   1.493       .  S
C11        C1059   1.463       .  S
C12        C1076   1.483       .  S
O13          C26   1.255       .  A
O13         Co21   1.924   1_565  S
O14          C27   1.253       .  A
O14         Co22   1.952       .  S
O15          C28   1.251       .  A
O15         Co23   1.943       .  S
O16          C29   1.234       .  A
O16         Co24   1.962       .  S
O17          C29   1.260       .  A
O17         Co22   2.066       .  S
O18          C28   1.279       .  A
O18         Co21   2.065       .  S
O19          C26   1.284   1_545  A
O19         Co24   2.068       .  S
O20          C27   1.262       .  A
O20         Co23   2.013       .  S
Co21         O25   2.077       .  S
Co22         O25   2.139       .  S
Co23         O25   2.111       .  S
Co24         O25   2.024       .  S
C26        C1046   1.483       .  S
C27        C1069   1.471       .  S
C28        C1099   1.475       .  S
C29        C1026   1.493       .  S
O30          C38   1.253       .  A
O30         Co50   1.952       .  S
O31          C39   1.246       .  A
O31         Co51   1.952       .  S
O32          C40   1.238       .  A
O32         Co52   1.965       .  S
O33          C41   1.250       .  A
O33         Co53   1.903       .  S
O34          C40   1.244       .  A
O34         Co51   1.973       .  S
O35          C41   1.279       .  A
O35         Co50   2.024       .  S
O36          C39   1.261       .  A
O36         Co53   2.033       .  S
O37          C38   1.259       .  A
O37         Co52   2.001       .  S
C38        C1056   1.451       .  S
C39         C976   1.474       .  S
C40         C966   1.467       .  S
C41         C986   1.434       .  S
O42          C55   1.231       .  A
O42         Co50   1.935       .  S
O43          C56   1.284       .  A
O43         Co51   2.014       .  S
O44          C57   1.254       .  A
O44         Co52   1.977       .  S
O45          C58   1.260       .  A
O45         Co53   1.951       .  S
O46          C58   1.268       .  A
O46         Co51   2.018       .  S
O47          C57   1.266       .  A
O47         Co50   2.020       .  S
O48          C55   1.253       .  A
O48         Co53   2.064       .  S
O49          C56   1.261       .  A
O49         Co52   1.880       .  S
Co50         O54   2.067       .  S
Co51         O54   2.164       .  S
Co52         O54   1.934       .  S
Co53         O54   2.102       .  S
C55        C1016   1.491       .  S
C56         C999   1.438       .  S
C57        C1009   1.474       .  S
C58        C1049   1.482       .  S
O59          C67   1.250       .  A
O59         Co79   1.954       .  S
O60          C68   1.257       .  A
O60         Co80   1.948       .  S
O61          C69   1.282       .  A
O61         Co81   2.039       .  S
O62          C70   1.252       .  A
O62         Co82   2.007       .  S
O63          C69   1.270       .  A
O63         Co80   1.937       .  S
O64          C70   1.244       .  A
O64         Co79   1.943       .  S
O65          C68   1.276       .  A
O65         Co82   2.068       .  S
O66          C67   1.263       .  A
O66         Co81   2.027       .  S
C67        C1079   1.482       .  S
C68         C946   1.506       .  S
C69         C956   1.458       .  S
C70         C926   1.461   1_545  S
O71          C84   1.297       .  A
O71         Co79   2.080       .  S
O72          C85   1.250       .  A
O72         Co80   2.022       .  S
O73          C86   1.247       .  A
O73         Co81   1.920       .  S
O74          C87   1.273       .  A
O74         Co82   1.952       .  S
O75          C87   1.285       .  A
O75         Co80   2.049       .  S
O76          C86   1.272       .  A
O76         Co79   2.045       .  S
O77          C84   1.285       .  A
O77         Co82   1.933       .  S
O78          C85   1.236       .  A
O78         Co81   1.917       .  S
Co79         O83   2.081       .  S
Co80         O83   2.075       .  S
Co81         O83   2.043       .  S
Co82         O83   2.034       .  S
C84         C909   1.490       .  S
C85         C936   1.449       .  S
C86         C916   1.455       .  S
C87        C1066   1.477       .  S
O88          C96   1.256       .  A
O88        Co108   1.961       .  S
O89          C97   1.267       .  A
O89        Co109   1.966       .  S
O90          C98   1.270       .  A
O90        Co110   1.903       .  S
O91          C99   1.245       .  A
O91        Co111   1.954       .  S
O92          C98   1.304       .  A
O92        Co109   2.107       .  S
O93          C99   1.270       .  A
O93        Co108   2.018       .  S
O94          C97   1.274       .  A
O94        Co111   1.988       .  S
O95          C96   1.244       .  A
O95        Co110   1.957       .  S
C96         C996   1.419       .  S
C97         C886   1.476       .  S
C98         C899   1.499       .  S
C99         C939   1.460       .  S
O100        C113   1.262       .  A
O100       Co108   1.971       .  S
O101        C114   1.243       .  A
O101       Co109   1.955       .  S
O102        C115   1.281       .  A
O102       Co110   2.040       .  S
O103        C116   1.232       .  A
O103       Co111   1.894       .  S
O104        C116   1.266       .  A
O104       Co109   2.027       .  S
O105        C115   1.261       .  A
O105       Co108   1.938       .  S
O106        C113   1.277       .  A
O106       Co111   2.059       .  S
O107        C114   1.245       .  A
O107       Co110   1.955       .  S
Co108       O112   2.087       .  S
Co109       O112   2.217       .  S
Co110       O112   1.919       .  S
Co111       O112   1.962       .  S
C113        C866   1.501       .  S
C114        C929   1.459       .  S
C115        C876   1.469       .  S
C116        C989   1.441       .  S
O117        C125   1.284       .  A
O117       Co137   1.981       .  S
O118        C126   1.275       .  A
O118       Co138   2.072       .  S
O119        C127   1.274       .  A
O119       Co139   2.017       .  S
O120        C128   1.263       .  A
O120       Co140   2.016       .  S
O121        C127   1.267       .  A
O121       Co138   1.950       .  S
O122        C128   1.249       .  A
O122       Co137   1.976       .  S
O123        C126   1.239       .  A
O123       Co140   1.925       .  S
O124        C125   1.270       .  A
O124       Co139   2.020       .  S
C125       C1039   1.487       .  S
C126        C819   1.483       .  S
C127        C859   1.460       .  S
C128        C826   1.471       .  S
O129        C142   1.296       .  A
O129       Co137   2.083       .  S
O130        C143   1.260       .  A
O130       Co138   2.014       .  S
O131        C144   1.269       .  A
O131       Co139   1.941       .  S
O132        C145   1.271       .  A
O132       Co140   2.085       .  S
O133        C145   1.223       .  A
O133       Co138   1.922       .  S
O134        C144   1.279       .  A
O134       Co137   2.034       .  S
O135        C142   1.270       .  A
O135       Co140   1.948       .  S
O136        C143   1.246       .  A
O136       Co139   1.979       .  S
Co137       O141   2.032       .  S
Co138       O141   2.049       .  S
Co139       O141   1.992       .  S
Co140       O141   2.061       .  S
C142        C846   1.503       .  S
C143        C836   1.454       .  S
C144        C969   1.459       .  S
C145        C809   1.479       .  S
O146        C154   1.287       .  A
O146       Co166   2.080       .  S
O147        C155   1.274       .  A
O147       Co167   2.008       .  S
O148        C156   1.271       .  A
O148       Co168   1.974       .  S
O149        C157   1.251   1_565  A
O149       Co169   1.949       .  S
O150        C156   1.282       .  A
O150       Co167   2.056       .  S
O151        C157   1.262   1_565  A
O151       Co166   2.019       .  S
O152        C155   1.262       .  A
O152       Co169   1.955       .  S
O153        C154   1.279       .  A
O153       Co168   1.952       .  S
C154       C1029   1.492       .  S
C155        C776   1.448       .  S
C156        C786   1.498       .  S
C157        C856   1.469       .  S
O158        C171   1.274       .  A
O158       Co166   1.962       .  S
O159        C172   1.272       .  A
O159       Co167   1.983       .  S
O160        C173   1.287       .  A
O160       Co168   2.078       .  S
O161        C174   1.263       .  A
O161       Co169   1.976       .  S
O162        C174   1.276       .  A
O162       Co167   2.017       .  S
O163        C173   1.269       .  A
O163       Co166   1.917       .  S
O164        C171   1.284       .  A
O164       Co169   2.055       .  S
O165        C172   1.280       .  A
O165       Co168   2.042       .  S
Co166       O170   1.998       .  S
Co167       O170   2.019       .  S
Co168       O170   2.009       .  S
Co169       O170   2.007       .  S
C171        C796   1.497       .  S
C172        C849   1.505       .  S
C173        C979   1.477       .  S
C174        C766   1.471       .  S
O175        C183   1.277       .  A
O175       Co195   1.958       .  S
O176        C184   1.278       .  A
O176       Co196   2.073       .  S
O177        C185   1.285       .  A
O177       Co197   2.056       .  S
O178        C186   1.264       .  A
O178       Co198   2.019       .  S
O179        C185   1.265       .  A
O179       Co196   1.962       .  S
O180        C186   1.244       .  A
O180       Co195   1.956       .  S
O181        C184   1.240       .  A
O181       Co198   1.931       .  S
O182        C183   1.275       .  A
O182       Co197   2.023       .  S
C183        C919   1.464       .  S
C184        C736   1.485       .  S
C185        C759   1.486       .  S
C186        C839   1.469       .  S
O187        C200   1.285       .  A
O187       Co195   2.044       .  S
O188        C201   1.268       .  A
O188       Co196   2.029       .  S
O189        C202   1.274       .  A
O189       Co197   1.975       .  S
O190        C203   1.275       .  A
O190       Co198   2.075       .  S
O191        C203   1.239       .  A
O191       Co196   1.929       .  S
O192        C202   1.283       .  A
O192       Co195   2.054       .  S
O193        C200   1.270       .  A
O193       Co198   1.964       .  S
O194        C201   1.247       .  A
O194       Co197   1.956       .  S
Co195       O199   2.030       .  S
Co196       O199   2.059       .  S
Co197       O199   2.031       .  S
Co198       O199   2.077       .  S
C200        C746   1.474       .  S
C201        C829   1.473       .  S
C202        C869   1.502       .  S
C203        C726   1.498       .  S
O204        C212   1.260       .  A
O204       Co224   1.971       .  S
O205        C213   1.275       .  A
O205       Co225   1.947       .  S
O206        C214   1.281       .  A
O206       Co226   2.044       .  S
O207        C215   1.274       .  A
O207       Co227   2.060       .  S
O208        C214   1.263       .  A
O208       Co225   1.957       .  S
O209        C215   1.250       .  A
O209       Co224   1.944       .  S
O210        C213   1.290       .  A
O210       Co227   2.097       .  S
O211        C212   1.270       .  A
O211       Co226   2.016       .  S
C212        C879   1.468       .  S
C213        C719   1.506       .  S
C214        C749   1.484       .  S
C215        C799   1.495       .  S
O216        C229   1.284   1_565  A
O216       Co224   2.049       .  S
O217        C230   1.282       .  A
O217       Co225   2.064       .  S
O218        C231   1.266       .  A
O218       Co226   1.986       .  S
O219        C232   1.276       .  A
O219       Co227   1.952       .  S
O220        C232   1.281       .  A
O220       Co225   2.056       .  S
O221        C231   1.271       .  A
O221       Co224   2.008       .  S
O222        C229   1.270   1_565  A
O222       Co227   1.972       .  S
O223        C230   1.257       .  A
O223       Co226   1.952       .  S
Co224       O228   2.005       .  S
Co225       O228   2.017       .  S
Co226       O228   2.042       .  S
Co227       O228   2.046       .  S
C229        C756   1.492       .  S
C230        C789   1.498       .  S
C231        C906   1.484       .  S
C232        C706   1.494       .  S
O233        C241   1.223       .  A
O233       Co253   1.930       .  S
O234        C242   1.230       .  A
O234       Co254   1.939   1_455  S
O235        C243   1.247       .  A
O235       Co255   1.940       .  S
O236        C244   1.248       .  A
O236       Co256   1.973       .  S
O237        C243   1.265       .  A
O237       Co254   2.026       .  S
O238        C244   1.263       .  A
O238       Co253   2.035       .  S
O239        C242   1.255       .  A
O239       Co256   2.023       .  S
O240        C241   1.261       .  A
O240       Co255   2.078   1_455  S
C241        C806   1.477       .  S
C242        C656   1.465       .  S
C243        C679   1.473       .  S
C244        C696   1.482       .  S
O245        C258   1.247       .  A
O245       Co253   1.928       .  S
O246        C259   1.251       .  A
O246       Co254   1.967       .  S
O247        C260   1.227       .  A
O247       Co255   1.938       .  S
O248        C261   1.240       .  A
O248       Co256   1.948   1_655  S
O249        C261   1.262       .  A
O249       Co254   2.050       .  S
O250        C260   1.263       .  A
O250       Co253   2.084   1_655  S
O251        C258   1.264       .  A
O251       Co256   2.019       .  S
O252        C259   1.266       .  A
O252       Co255   2.032       .  S
Co253       O257   2.127       .  S
Co254       O257   2.122   1_655  S
Co255       O257   2.142   1_655  S
Co256       O257   2.147       .  S
C258        C669   1.468       .  S
C259        C689   1.479       .  S
C260        C739   1.494       .  S
C261        C646   1.488       .  S
O262        C270   1.275   1_455  A
O262       Co282   1.967       .  S
O263        C271   1.263       .  A
O263       Co283   1.976       .  S
O264        C272   1.268       .  A
O264       Co284   2.021       .  S
O265        C273   1.280       .  A
O265       Co285   2.031       .  S
O266        C272   1.260       .  A
O266       Co283   1.967       .  S
O267        C273   1.263   1_655  A
O267       Co282   1.930   1_655  S
O268        C271   1.271   1_455  A
O268       Co285   2.013       .  S
O269        C270   1.283       .  A
O269       Co284   2.073       .  S
C270        C716   1.506       .  S
C271        C619   1.472       .  S
C272        C626   1.473       .  S
C273        C666   1.470       .  S
O274        C287   1.277       .  A
O274       Co282   2.065       .  S
O275        C288   1.279   1_565  A
O275       Co283   2.017       .  S
O276        C289   1.277   1_655  A
O276       Co284   1.962       .  S
O277        C290   1.264       .  A
O277       Co285   1.968       .  S
O278        C290   1.275   1_655  A
O278       Co283   2.016       .  S
O279        C289   1.273       .  A
O279       Co282   2.024       .  S
O280        C287   1.257       .  A
O280       Co285   1.964       .  S
O281        C288   1.272   1_465  A
O281       Co284   1.959   1_455  S
Co282       O286   2.012   1_455  S
Co283       O286   2.003       .  S
Co284       O286   2.033       .  S
Co285       O286   2.020   1_455  S
C287        C636   1.507       .  S
C288        C676   1.476       .  S
C289        C769   1.480       .  S
C290        C606   1.471       .  S
O291        C299   1.260       .  A
O291       Co311   1.960       .  S
O292        C300   1.282       .  A
O292       Co312   2.054       .  S
O293        C301   1.257       .  A
O293       Co313   1.966       .  S
O294        C302   1.257       .  A
O294       Co314   1.918       .  S
O295        C301   1.275       .  A
O295       Co312   2.043       .  S
O296        C302   1.294       .  A
O296       Co311   2.087       .  S
O297        C300   1.271       .  A
O297       Co314   1.942       .  S
O298        C299   1.278       .  A
O298       Co313   2.017       .  S
C299        C816   1.468       .  S
C300        C566   1.482       .  S
C301        C586   1.491       .  S
C302        C699   1.478       .  S
O303        C316   1.256       .  A
O303       Co311   1.971       .  S
O304        C317   1.262       .  A
O304       Co312   1.927       .  S
O305        C318   1.261       .  A
O305       Co313   1.965       .  S
O306        C319   1.277       .  A
O306       Co314   2.051       .  S
O307        C319   1.274       .  A
O307       Co312   1.957       .  S
O308        C318   1.281       .  A
O308       Co311   2.022       .  S
O309        C316   1.270       .  A
O309       Co314   2.024       .  S
O310        C317   1.292       .  A
O310       Co313   2.072       .  S
Co311       O315   2.007       .  S
Co312       O315   2.021       .  S
Co313       O315   2.001       .  S
Co314       O315   2.010       .  S
C316        C599   1.475       .  S
C317        C686   1.476       .  S
C318        C729   1.476       .  S
C319        C576   1.481       .  S
O320        C328   1.266       .  A
O320       Co340   1.982       .  S
O321        C329   1.280       .  A
O321       Co341   2.053       .  S
O322        C330   1.252       .  A
O322       Co342   1.947   1_545  S
O323        C331   1.268       .  A
O323       Co343   1.951       .  S
O324        C330   1.277   1_565  A
O324       Co341   2.052       .  S
O325        C331   1.290       .  A
O325       Co340   2.083       .  S
O326        C329   1.275       .  A
O326       Co343   1.958       .  S
O327        C328   1.262       .  A
O327       Co342   1.969       .  S
C328        C779   1.452       .  S
C329        C546   1.490       .  S
C330        C596   1.483       .  S
C331        C639   1.508       .  S
O332        C345   1.263       .  A
O332       Co340   1.982       .  S
O333        C346   1.268       .  A
O333       Co341   1.943       .  S
O334        C347   1.267       .  A
O334       Co342   1.990       .  S
O335        C348   1.281       .  A
O335       Co343   2.059       .  S
O336        C348   1.277       .  A
O336       Co341   1.968       .  S
O337        C347   1.281       .  A
O337       Co340   2.017       .  S
O338        C345   1.276       .  A
O338       Co343   2.032       .  S
O339        C346   1.282       .  A
O339       Co342   2.041       .  S
Co340       O344   2.027       .  S
Co341       O344   2.028       .  S
Co342       O344   2.005       .  S
Co343       O344   1.999       .  S
C345        C589   1.485       .  S
C346        C629   1.478       .  S
C347        C709   1.490       .  S
C348        C556   1.497       .  S
O349        C357   1.278       .  A
O349       Co369   1.951   1_455  S
O350        C358   1.274       .  A
O350       Co370   2.033       .  S
O351        C359   1.274       .  A
O351       Co371   2.028       .  S
O352        C360   1.266   1_545  A
O352       Co372   2.012       .  S
O353        C359   1.266       .  A
O353       Co370   1.962       .  S
O354        C360   1.260   1_445  A
O354       Co369   1.993   1_455  S
O355        C358   1.257       .  A
O355       Co372   1.948   1_455  S
O356        C357   1.277       .  A
O356       Co371   2.033       .  S
C357       C1086   1.474       .  S
C358        C609   1.471       .  S
C359        C519   1.473       .  S
C360        C529   1.484       .  S
O361        C374   1.282       .  A
O361       Co369   2.044       .  S
O362        C375   1.261       .  A
O362       Co370   2.021       .  S
O363        C376   1.267   1_455  A
O363       Co371   1.933       .  S
O364        C377   1.260       .  A
O364       Co372   2.040       .  S
O365        C377   1.226       .  A
O365       Co370   1.927   1_655  S
O366        C376   1.284       .  A
O366       Co369   2.055       .  S
O367        C374   1.271       .  A
O367       Co372   1.970       .  S
O368        C375   1.252   1_655  A
O368       Co371   2.004   1_655  S
Co369       O373   2.033   1_655  S
Co370       O373   2.049       .  S
Co371       O373   2.016       .  S
Co372       O373   2.096   1_655  S
C374        C506   1.484       .  S
C375        C536   1.488       .  S
C376        C959   1.463       .  S
C377        C659   1.470       .  S
O378        C386   1.266   1_655  A
O378       Co398   1.904       .  S
O379        C387   1.274   1_455  A
O379       Co399   2.008       .  S
O380        C388   1.271       .  A
O380       Co400   2.033   1_455  S
O381        C389   1.288       .  A
O381       Co401   2.071       .  S
O382        C388   1.263       .  A
O382       Co399   1.975       .  S
O383        C389   1.260       .  A
O383       Co398   1.941       .  S
O384        C387   1.261       .  A
O384       Co401   1.971       .  S
O385        C386   1.284       .  A
O385       Co400   2.073   1_455  S
C386       C1006   1.455       .  S
C387        C649   1.468   1_655  S
C388        C496   1.487       .  S
C389        C539   1.481       .  S
O390        C403   1.265       .  A
O390       Co398   2.029       .  S
O391        C404   1.286       .  A
O391       Co399   2.059       .  S
O392        C405   1.271       .  A
O392       Co400   1.934       .  S
O393        C406   1.271       .  A
O393       Co401   1.990       .  S
O394        C406   1.268       .  A
O394       Co399   1.989   1_655  S
O395        C405   1.290       .  A
O395       Co398   2.084       .  S
O396        C403   1.254       .  A
O396       Co401   1.960       .  S
O397        C404   1.265   1_655  A
O397       Co400   1.949       .  S
Co398       O402   2.008       .  S
Co399       O402   2.016   1_455  S
Co400       O402   2.009       .  S
Co401       O402   2.018       .  S
C403        C486   1.481       .  S
C404        C526   1.479       .  S
C405        C896   1.494       .  S
C406        C616   1.465       .  S
O407        C415   1.283       .  A
O407       Co427   2.060       .  S
O408        C416   1.274       .  A
O408       Co428   2.029       .  S
O409        C417   1.258   1_545  A
O409       Co429   1.944       .  S
O410        C418   1.253       .  A
O410       Co430   1.960       .  S
O411        C417   1.278   1_545  A
O411       Co428   2.047       .  S
O412        C418   1.264       .  A
O412       Co427   2.030       .  S
O413        C416   1.259       .  A
O413       Co430   1.980       .  S
O414        C415   1.275       .  A
O414       Co429   1.957       .  S
C415       C1096   1.484       .  S
C416        C549   1.484       .  S
C417        C469   1.472       .  S
C418        C516   1.480       .  S
O419        C432   1.272       .  A
O419       Co427   1.967       .  S
O420        C433   1.260       .  A
O420       Co428   1.964       .  S
O421        C434   1.287       .  A
O421       Co429   2.072       .  S
O422        C435   1.274       .  A
O422       Co430   2.024       .  S
O423        C435   1.264       .  A
O423       Co428   1.980       .  S
O424        C434   1.270       .  A
O424       Co427   1.948       .  S
O425        C432   1.284       .  A
O425       Co430   2.044       .  S
O426        C433   1.273       .  A
O426       Co429   2.034       .  S
Co427       O431   2.021       .  S
Co428       O431   2.039       .  S
Co429       O431   2.038       .  S
Co430       O431   2.017       .  S
C432        C476   1.480       .  S
C433        C509   1.488       .  S
C434        C949   1.494       .  S
C435        C579   1.485       .  S
O436        C444   1.275       .  A
O436       Co456   2.036       .  S
O437        C445   1.276       .  A
O437       Co457   2.013       .  S
O438        C446   1.271       .  A
O438       Co458   1.962       .  S
O439        C447   1.257       .  A
O439       Co459   1.964       .  S
O440        C446   1.284       .  A
O440       Co457   2.046       .  S
O441        C447   1.268       .  A
O441       Co456   2.034       .  S
O442        C445   1.266       .  A
O442       Co459   1.980       .  S
O443        C444   1.280       .  A
O443       Co458   1.987       .  S
C444       C1019   1.504       .  S
C445        C569   1.468       .  S
C446        C479   1.485       .  S
C447        C499   1.487       .  S
O448        C461   1.263       .  A
O448       Co456   1.931       .  S
O449        C462   1.264       .  A
O449       Co457   1.962       .  S
O450        C463   1.273       .  A
O450       Co458   2.040       .  S
O451        C464   1.266       .  A
O451       Co459   1.989       .  S
O452        C464   1.269       .  A
O452       Co457   2.018       .  S
O453        C463   1.275       .  A
O453       Co456   1.977       .  S
O454        C461   1.288       .  A
O454       Co459   2.060       .  S
O455        C462   1.274       .  A
O455       Co458   2.034       .  S
Co456       O460   2.028       .  S
Co457       O460   2.017       .  S
Co458       O460   2.025       .  S
Co459       O460   2.007       .  S
C461        C466   1.479       .  S
C462        C489   1.479       .  S
C463        C889   1.489       .  S
C464        C559   1.502       .  S
C465        C466   1.404       .  A
C465        C470   1.389       .  A
C465        H472   1.084       .  S
C466        C467   1.408       .  A
C467        C468   1.407       .  A
C467        F474   1.354       .  S
C468        C469   1.403       .  A
C468        H473   1.080       .  S
C469        C470   1.403       .  A
C470        F471   1.357       .  S
C475        C476   1.405       .  A
C475        C480   1.400       .  A
C475        H482   1.083       .  S
C476        C477   1.405       .  A
C477        C478   1.404       .  A
C477        F484   1.357       .  S
C478        C479   1.408       .  A
C478        H483   1.083       .  S
C479        C480   1.407       .  A
C480        F481   1.358       .  S
C485        C486   1.409       .  A
C485        C490   1.411       .  A
C485        H492   1.083       .  S
C486        C487   1.407       .  A
C487        C488   1.386       .  A
C487        F494   1.358       .  S
C488        C489   1.401       .  A
C488        H493   1.084       .  S
C489        C490   1.408       .  A
C490        F491   1.357       .  S
C495        C496   1.402       .  A
C495        C500   1.392       .  A
C495        H502   1.083       .  S
C496        C497   1.411       .  A
C497        C498   1.413       .  A
C497        F504   1.357       .  S
C498        C499   1.408       .  A
C498        H503   1.083       .  S
C499        C500   1.409       .  A
C500        F501   1.359       .  S
C505        C506   1.410       .  A
C505        C510   1.412       .  A
C505        H512   1.083       .  S
C506        C507   1.403       .  A
C507        C508   1.393       .  A
C507        F514   1.358       .  S
C508        C509   1.407       .  A
C508        H513   1.084       .  S
C509        C510   1.408       .  A
C510        F511   1.357   1_545  S
C515        C516   1.407       .  A
C515        C520   1.407       .  A
C515        H522   1.083       .  S
C516        C517   1.409       .  A
C517        C518   1.391       .  A
C517        F524   1.358       .  S
C518        C519   1.398       .  A
C518        H523   1.084       .  S
C519        C520   1.407       .  A
C520        F521   1.357       .  S
C525        C526   1.405       .  A
C525        C530   1.406       .  A
C525        H532   1.083       .  S
C526        C527   1.406   1_455  A
C527        C528   1.397       .  A
C527        F534   1.358       .  S
C528        C529   1.405       .  A
C528        H533   1.083       .  S
C529        C530   1.409   1_655  A
C530        F531   1.357       .  S
C535        C536   1.411   1_655  A
C535        C540   1.407       .  A
C535        H542   1.083       .  S
C536        C537   1.406       .  A
C537        C538   1.399       .  A
C537        F544   1.358       .  S
C538        C539   1.407   1_455  A
C538        H543   1.083       .  S
C539        C540   1.404       .  A
C540        F541   1.357       .  S
C545        C546   1.407   1_545  A
C545        C550   1.394       .  A
C545        H552   1.071       .  S
C546        C547   1.406       .  A
C547        C548   1.415       .  A
C547        F554   1.356       .  S
C548        C549   1.411   1_565  A
C548        H553   1.081       .  S
C549        C550   1.397       .  A
C550        F551   1.358       .  S
C555        C556   1.404       .  A
C555        C560   1.382       .  A
C555        H562   1.082       .  S
C556        C557   1.411       .  A
C557        C558   1.424       .  A
C557        F564   1.356       .  S
C558        C559   1.417       .  A
C558        H563   1.082       .  S
C559        C560   1.410       .  A
C560        F561   1.358       .  S
C565        C566   1.406       .  A
C565        C570   1.407       .  A
C565        H572   1.083       .  S
C566        C567   1.411       .  A
C567        C568   1.389       .  A
C567        F574   1.354       .  S
C568        C569   1.395       .  A
C568        H573   1.084       .  S
C569        C570   1.405       .  A
C570        F571   1.353       .  S
C575        C576   1.408       .  A
C575        C580   1.404       .  A
C575        H582   1.083       .  S
C576        C577   1.406       .  A
C577        C578   1.406       .  A
C577        F584   1.356       .  S
C578        C579   1.405       .  A
C578        H583   1.082       .  S
C579        C580   1.405       .  A
C580        F581   1.357       .  S
C585        C586   1.412       .  A
C585        C590   1.401       .  A
C585        H592   1.083       .  S
C586        C587   1.405       .  A
C587        C588   1.407       .  A
C587        F594   1.357       .  S
C588        C589   1.410       .  A
C588        H593   1.083       .  S
C589        C590   1.401       .  A
C590        F591   1.358       .  S
C595        C596   1.413       .  A
C595        C600   1.394       .  A
C595        H602   1.082       .  S
C596        C597   1.402       .  A
C597        C598   1.406       .  A
C597        F604   1.357       .  S
C598        C599   1.412       .  A
C598        H603   1.083       .  S
C599        C600   1.396       .  A
C600        F601   1.358       .  S
C605        C606   1.395   1_545  A
C605        C610   1.390       .  A
C605        H612   1.082   1_455  S
C606        C607   1.409       .  A
C607        C608   1.408   1_565  A
C607        F614   1.357       .  S
C608        C609   1.404       .  A
C608        H613   1.083       .  S
C609        C610   1.403       .  A
C610        F611   1.349   1_455  S
C615        C616   1.400       .  A
C615        C620   1.395       .  A
C615        H622   1.082       .  S
C616        C617   1.408       .  A
C617        C618   1.403       .  A
C617        F624   1.358       .  S
C618        C619   1.402       .  A
C618        H623   1.083       .  S
C619        C620   1.406       .  A
C620        F621   1.358       .  S
C625        C626   1.406       .  A
C625        C630   1.404       .  A
C625        H632   1.083       .  S
C626        C627   1.404       .  A
C627        C628   1.391       .  A
C627        F634   1.358       .  S
C628        C629   1.403       .  A
C628        H633   1.083       .  S
C629        C630   1.408       .  A
C630        F631   1.357   1_565  S
C635        C636   1.413       .  A
C635        C640   1.424       .  A
C635        H642   1.082       .  S
C636        C637   1.412       .  A
C637        C638   1.392       .  A
C637        F644   1.359       .  S
C638        C639   1.405       .  A
C638        H643   1.083       .  S
C639        C640   1.416       .  A
C640        F641   1.356       .  S
C645        C646   1.410   1_455  A
C645        C650   1.396       .  A
C645        H652   1.083       .  S
C646        C647   1.409       .  A
C647        C648   1.405       .  A
C647        F654   1.357       .  S
C648        C649   1.407   1_655  A
C648        H653   1.082       .  S
C649        C650   1.401       .  A
C650        F651   1.358       .  S
C655        C656   1.413   1_655  A
C655        C660   1.395       .  A
C655        H662   1.082       .  S
C656        C657   1.395       .  A
C657        C658   1.387       .  A
C657        F664   1.358       .  S
C658        C659   1.414   1_455  A
C658        H663   1.083       .  S
C659        C660   1.396       .  A
C660        F661   1.357       .  S
C665        C666   1.403   1_655  A
C665        C670   1.383       .  A
C665        H672   1.084       .  S
C666        C667   1.407       .  A
C667        C668   1.398       .  A
C667        F674   1.357       .  S
C668        C669   1.405       .  A
C668        H673   1.083       .  S
C669        C670   1.406   1_455  A
C670        F671   1.358       .  S
C675        C676   1.410       .  A
C675        C680   1.396       .  A
C675        H682   1.083       .  S
C676        C677   1.405   1_655  A
C677        C678   1.391       .  A
C677        F684   1.358       .  S
C678        C679   1.406   1_455  A
C678        H683   1.083       .  S
C679        C680   1.403       .  A
C680        F681   1.357       .  S
C685        C686   1.408       .  A
C685        C690   1.397       .  A
C685        H692   1.083       .  S
C686        C687   1.402       .  A
C687        C688   1.406       .  A
C687        F694   1.357       .  S
C688        C689   1.409       .  A
C688        H693   1.083       .  S
C689        C690   1.402       .  A
C690        F691   1.358       .  S
C695        C696   1.398       .  A
C695        C700   1.394       .  A
C695        H702   1.084       .  S
C696        C697   1.413       .  A
C697        C698   1.407       .  A
C697        F704   1.357       .  S
C698        C699   1.402       .  A
C698        H703   1.083       .  S
C699        C700   1.412       .  A
C700        F701   1.357       .  S
C705        C706   1.400       .  A
C705        C710   1.407       .  A
C705        H712   1.083       .  S
C706        C707   1.419       .  A
C707        C708   1.401       .  A
C707        F714   1.356       .  S
C708        C709   1.397       .  A
C708        H713   1.083       .  S
C709        C710   1.418       .  A
C710        F711   1.356       .  S
C715        C716   1.412       .  A
C715        C720   1.410       .  A
C715        H722   1.083       .  S
C716        C717   1.409       .  A
C717        C718   1.415       .  A
C717        F724   1.356   1_655  S
C718        C719   1.413       .  A
C718        H723   1.083       .  S
C719        C720   1.408       .  A
C720        F721   1.356       .  S
C725        C726   1.417       .  A
C725        C730   1.397       .  A
C725        H732   1.083       .  S
C726        C727   1.404       .  A
C727        C728   1.409       .  A
C727        F734   1.357       .  S
C728        C729   1.414       .  A
C728        H733   1.081       .  S
C729        C730   1.398       .  A
C730        F731   1.358       .  S
C735        C736   1.399       .  A
C735        C740   1.403       .  A
C735        H742   1.081       .  S
C736        C737   1.416       .  A
C737        C738   1.404       .  A
C737        F744   1.358       .  S
C738        C739   1.404       .  A
C738        H743   1.083       .  S
C739        C740   1.418       .  A
C740        F741   1.357       .  S
C745        C746   1.404       .  A
C745        C750   1.402       .  A
C745        H752   1.083       .  S
C746        C747   1.403       .  A
C747        C748   1.401       .  A
C747        F754   1.358       .  S
C748        C749   1.408       .  A
C748        H753   1.083       .  S
C749        C750   1.407       .  A
C750        F751   1.357       .  S
C755        C756   1.410       .  A
C755        C760   1.409       .  A
C755        H762   1.083       .  S
C756        C757   1.407       .  A
C757        C758   1.405       .  A
C757        F764   1.357       .  S
C758        C759   1.407       .  A
C758        H763   1.083       .  S
C759        C760   1.405       .  A
C760        F761   1.357       .  S
C765        C766   1.407       .  A
C765        C770   1.409       .  A
C765        H772   1.075       .  S
C766        C767   1.399       .  A
C767        C768   1.390       .  A
C767        F774   1.358       .  S
C768        C769   1.410       .  A
C768        H773   1.084       .  S
C769        C770   1.406       .  A
C770        F771   1.357       .  S
C775        C776   1.392       .  A
C775        C780   1.387       .  A
C775        H782   1.081       .  S
C776        C777   1.406       .  A
C777        C778   1.395       .  A
C777        F784   1.357       .  S
C778        C779   1.397       .  A
C778        H783   1.084       .  S
C779        C780   1.407       .  A
C780        F781   1.358       .  S
C785        C786   1.401       .  A
C785        C790   1.398       .  A
C785        H792   1.084       .  S
C786        C787   1.416       .  A
C787        C788   1.417       .  A
C787        F794   1.357       .  S
C788        C789   1.407       .  A
C788        H793   1.083       .  S
C789        C790   1.414       .  A
C790        F791   1.358       .  S
C795        C796   1.417       .  A
C795        C800   1.415   1_455  A
C795        H802   1.082       .  S
C796        C797   1.405       .  A
C797        C798   1.392   1_455  A
C797        F804   1.358       .  S
C798        C799   1.411       .  A
C798        H803   1.083       .  S
C799        C800   1.406       .  A
C800        F801   1.356   1_565  S
C805        C806   1.387       .  A
C805        C810   1.395       .  A
C805        H812   1.083       .  S
C806        C807   1.422       .  A
C807        C808   1.398       .  A
C807        F814   1.352       .  S
C808        C809   1.389       .  A
C808        H813   1.083       .  S
C809        C810   1.425       .  A
C810        F811   1.355       .  S
C815        C816   1.408       .  A
C815        C820   1.405       .  A
C815        H822   1.073       .  S
C816        C817   1.400       .  A
C817        C818   1.391       .  A
C817        F824   1.359       .  S
C818        C819   1.412       .  A
C818        H823   1.084       .  S
C819        C820   1.404       .  A
C820        F821   1.357       .  S
C825        C826   1.398       .  A
C825        C830   1.395       .  A
C825        H832   1.084       .  S
C826        C827   1.410       .  A
C827        C828   1.400       .  A
C827        F834   1.358       .  S
C828        C829   1.400       .  A
C828        H833   1.083       .  S
C829        C830   1.411       .  A
C830        F831   1.358       .  S
C835        C836   1.393       .  A
C835        C840   1.388   1_455  A
C835        H842   1.084       .  S
C836        C837   1.405       .  A
C837        C838   1.396   1_455  A
C837        F844   1.358       .  S
C838        C839   1.402       .  A
C838        H843   1.083       .  S
C839        C840   1.413       .  A
C840        F841   1.358       .  S
C845        C846   1.410       .  A
C845        C850   1.419       .  A
C845        H852   1.083       .  S
C846        C847   1.412       .  A
C847        C848   1.395       .  A
C847        F854   1.359       .  S
C848        C849   1.405       .  A
C848        H853   1.083       .  S
C849        C850   1.416       .  A
C850        F851   1.356       .  S
C855        C856   1.405       .  A
C855        C860   1.401       .  A
C855        H862   1.083       .  S
C856        C857   1.408       .  A
C857        C858   1.385       .  A
C857        F864   1.358       .  S
C858        C859   1.396       .  A
C858        H863   1.084       .  S
C859        C860   1.405       .  A
C860        F861   1.357       .  S
C865        C866   1.406       .  A
C865        C870   1.398   1_554  A
C865        H872   1.084       .  S
C866        C867   1.413       .  A
C867        C868   1.418       .  A
C867        F874   1.357       .  S
C868        C869   1.412   1_554  A
C868        H873   1.083       .  S
C869        C870   1.410       .  A
C870        F871   1.357       .  S
C875        C876   1.402       .  A
C875        C880   1.399       .  A
C875        H882   1.082       .  S
C876        C877   1.409       .  A
C877        C878   1.398   1_554  A
C877        F884   1.358       .  S
C878        C879   1.399       .  A
C878        H883   1.083       .  S
C879        C880   1.406   1_556  A
C880        F881   1.358       .  S
C885        C886   1.411       .  A
C885        C890   1.414       .  A
C885        H892   1.082       .  S
C886        C887   1.401       .  A
C887        C888   1.389       .  A
C887        F894   1.359       .  S
C888        C889   1.408       .  A
C888        H893   1.081       .  S
C889        C890   1.406       .  A
C890        F891   1.356       .  S
C895        C896   1.406       .  A
C895        C900   1.410       .  A
C895        H902   1.083       .  S
C896        C897   1.408       .  A
C897        C898   1.399       .  A
C897        F904   1.352       .  S
C898        C899   1.404       .  A
C898        H903   1.083       .  S
C899        C900   1.416       .  A
C900        F901   1.356       .  S
C905        C906   1.398   1_545  A
C905        C910   1.392   1_556  A
C905        H912   1.084       .  S
C906        C907   1.412       .  A
C907        C908   1.414   1_566  A
C907        F914   1.357       .  S
C908        C909   1.408       .  A
C908        H913   1.083   1_545  S
C909        C910   1.410       .  A
C910        F911   1.354       .  S
C915        C916   1.409       .  A
C915        C920   1.406   1_554  A
C915        H922   1.083       .  S
C916        C917   1.397       .  A
C917        C918   1.383   1_554  A
C917        F924   1.359       .  S
C918        C919   1.404       .  A
C918        H923   1.082       .  S
C919        C920   1.402       .  A
C920        F921   1.356       .  S
C925        C926   1.404       .  A
C925        C930   1.393       .  A
C925        H932   1.084       .  S
C926        C927   1.405       .  A
C927        C928   1.388       .  A
C927        F934   1.358       .  S
C928        C929   1.402       .  A
C928        H933   1.084       .  S
C929        C930   1.404       .  A
C930        F931   1.358       .  S
C935        C936   1.395       .  A
C935        C940   1.396       .  A
C935        H942   1.083       .  S
C936        C937   1.406       .  A
C937        C938   1.379       .  A
C937        F944   1.359       .  S
C938        C939   1.395       .  A
C938        H943   1.083       .  S
C939        C940   1.414       .  A
C940        F941   1.358       .  S
C945        C946   1.413       .  A
C945        C950   1.398       .  A
C945        H952   1.083       .  S
C946        C947   1.411       .  A
C947        C948   1.417       .  A
C947        F954   1.357       .  S
C948        C949   1.413       .  A
C948        H953   1.083       .  S
C949        C950   1.402       .  A
C950        F951   1.358       .  S
C955        C956   1.399       .  A
C955        C960   1.384       .  A
C955        H962   1.084       .  S
C956        C957   1.403       .  A
C957        C958   1.401       .  A
C957        F964   1.356       .  S
C958        C959   1.405       .  A
C958        H963   1.083   1_655  S
C959        C960   1.404       .  A
C960        F961   1.358       .  S
C965        C966   1.402       .  A
C965        C970   1.388   1_554  A
C965        H972   1.084       .  S
C966        C967   1.409       .  A
C967        C968   1.396       .  A
C967        F974   1.357       .  S
C968        C969   1.400   1_554  A
C968        H973   1.082       .  S
C969        C970   1.405       .  A
C970        F971   1.359       .  S
C975        C976   1.404       .  A
C975        C980   1.402       .  A
C975        H982   1.080       .  S
C976        C977   1.406       .  A
C977        C978   1.390   1_554  A
C977        F984   1.358       .  S
C978        C979   1.405       .  A
C978        H983   1.084       .  S
C979        C980   1.408   1_556  A
C980        F981   1.355       .  S
C985        C986   1.384       .  A
C985        C990   1.378       .  A
C985        H992   1.084       .  S
C986        C987   1.412       .  A
C987        C988   1.386       .  A
C987        F994   1.358       .  S
C988        C989   1.389       .  A
C988        H993   1.083       .  S
C989        C990   1.416       .  A
C990        F991   1.358       .  S
C995        C996   1.390       .  A
C995       C1000   1.369       .  A
C995       H1002   1.080       .  S
C996        C997   1.395       .  A
C997        C998   1.383       .  A
C997       F1004   1.351       .  S
C998        C999   1.401   1_655  A
C998       H1003   1.083   1_655  S
C999       C1000   1.407   1_455  A
C1000      F1001   1.359   1_655  S
C1005      C1006   1.393       .  A
C1005      C1010   1.387       .  A
C1005      H1012   1.084   1_455  S
C1006      C1007   1.405       .  A
C1007      C1008   1.399       .  A
C1007      F1014   1.357       .  S
C1008      C1009   1.405       .  A
C1008      H1013   1.083       .  S
C1009      C1010   1.407       .  A
C1010      F1011   1.348       .  S
C1015      C1016   1.415       .  A
C1015      C1020   1.419       .  A
C1015      H1022   1.082       .  S
C1016      C1017   1.401       .  A
C1017      C1018   1.396       .  A
C1017      F1024   1.358       .  S
C1018      C1019   1.412       .  A
C1018      H1023   1.080       .  S
C1019      C1020   1.408       .  A
C1020      F1021   1.356       .  S
C1025      C1026   1.416       .  A
C1025      C1030   1.428   1_544  A
C1025      H1032   1.082       .  S
C1026      C1027   1.403   1_545  A
C1027      C1028   1.375   1_554  A
C1027      F1034   1.355   1_565  S
C1028      C1029   1.396       .  A
C1028      H1033   1.075       .  S
C1029      C1030   1.414       .  A
C1030      F1031   1.356       .  S
C1035      C1036   1.401   1_556  A
C1035      C1040   1.410       .  A
C1035      H1042   1.083       .  S
C1036      C1037   1.421       .  A
C1037      C1038   1.401       .  A
C1037      F1044   1.358       .  S
C1038      C1039   1.396   1_554  A
C1038      H1043   1.082       .  S
C1039      C1040   1.418       .  A
C1040      F1041   1.356       .  S
C1045      C1046   1.410       .  A
C1045      C1050   1.382       .  A
C1045      H1052   1.083       .  S
C1046      C1047   1.403       .  A
C1047      C1048   1.410       .  A
C1047      F1054   1.357       .  S
C1048      C1049   1.417       .  A
C1048      H1053   1.083       .  S
C1049      C1050   1.403       .  A
C1050      F1051   1.359       .  S
C1055      C1056   1.401       .  A
C1055      C1060   1.393       .  A
C1055      H1062   1.084       .  S
C1056      C1057   1.400       .  A
C1057      C1058   1.383       .  A
C1057      F1064   1.358       .  S
C1058      C1059   1.404       .  A
C1058      H1063   1.083       .  S
C1059      C1060   1.407       .  A
C1060      F1061   1.357       .  S
C1065      C1066   1.405       .  A
C1065      C1070   1.392       .  A
C1065      H1072   1.083       .  S
C1066      C1067   1.411       .  A
C1067      C1068   1.397       .  A
C1067      F1074   1.358       .  S
C1068      C1069   1.402       .  A
C1068      H1073   1.083       .  S
C1069      C1070   1.406       .  A
C1070      F1071   1.358       .  S
C1075      C1076   1.404       .  A
C1075      C1080   1.392   1_455  A
C1075      H1082   1.083       .  S
C1076      C1077   1.410       .  A
C1077      C1078   1.403       .  A
C1077      F1084   1.357       .  S
C1078      C1079   1.406   1_455  A
C1078      H1083   1.083   1_455  S
C1079      C1080   1.409       .  A
C1080      F1081   1.358       .  S
C1085      C1086   1.409       .  A
C1085      C1090   1.396       .  A
C1085      H1092   1.083       .  S
C1086      C1087   1.402       .  A
C1087      C1088   1.400       .  A
C1087      F1094   1.358       .  S
C1088      C1089   1.413       .  A
C1088      H1093   1.083       .  S
C1089      C1090   1.403       .  A
C1090      F1091   1.354       .  S
C1095      C1096   1.401       .  A
C1095      C1100   1.371       .  A
C1095      H1102   1.083       .  S
C1096      C1097   1.412   1_545  A
C1097      C1098   1.420   1_565  A
C1097      F1104   1.356       .  S
C1098      C1099   1.411       .  A
C1098      H1103   1.082   1_545  S
C1099      C1100   1.399       .  A
C1100      F1101   1.353       .  S
