geometry optimzed in LAMMPS
_audit_creation_date              2020-11-30 
_audit_creation_method            'lammps2cif' 
_symmetry_space_group_name_H-M    'P1' 
_symmetry_Int_Tables_number       1 
_symmetry_cell_setting            triclinic 
loop_ 
_symmetry_equiv_pos_as_xyz 
  x,y,z 
_cell_length_a                    50.023145430284835 
_cell_length_b                    50.128958083319944 
_cell_length_c                    86.98098520880586 
_cell_angle_alpha                 90.0131394517527 
_cell_angle_beta                  90.08267401354014 
_cell_angle_gamma                 90.40711560319141 
loop_ 
_atom_site_label 
_atom_site_type_symbol 
_atom_site_fract_x 
_atom_site_fract_y 
_atom_site_fract_z 
_atom_site_charge 
O1          O  0.16036132  0.09577873  0.74936108    -0.73130
O2          O  0.11306241  0.15265846  0.73181960    -0.74120
O3          O  0.16073511  0.15243702  0.74944391    -0.62730
O4          O  0.11274317  0.09574100  0.73173102    -0.71150
O5          O  0.08956228  0.09567196  0.75348719    -0.70700
O6          O  0.13755859  0.15241008  0.77120074    -0.61950
O7          O  0.08993461  0.15229522  0.75359216    -0.74460
O8          O  0.13718186  0.09552692  0.77111666    -0.73240
Cu9        Cu  0.13758272  0.12415895  0.73984195     1.04560
Cu10       Cu  0.11270478  0.12397466  0.76309105     1.04330
C11         C  0.15627225  0.08666224  0.76288567     0.93060
C12         C  0.09396941  0.16146208  0.74007783     0.92200
C13         C  0.15677615  0.16138090  0.76300506     0.84350
C14         C  0.09354684  0.08673213  0.73992715     0.90620
O15         O  0.41091223  0.15103267  0.75368936    -0.73130
O16         O  0.36319795  0.09364854  0.77069718    -0.74120
O17         O  0.41055765  0.09441486  0.75288384    -0.62730
O18         O  0.36352739  0.15043829  0.77142798    -0.71150
O19         O  0.34010868  0.15111205  0.74972457    -0.70700
O20         O  0.38717288  0.09505703  0.73117175    -0.61950
O21         O  0.33973237  0.09446921  0.74901118    -0.74460
O22         O  0.38751833  0.15199729  0.73198020    -0.73240
Cu23       Cu  0.38792016  0.12234540  0.76290774     1.04560
Cu24       Cu  0.36276621  0.12318003  0.73972447     1.04330
C25         C  0.40678403  0.16062925  0.74029461     0.93060
C26         C  0.34383492  0.08504951  0.76245967     0.92200
C27         C  0.40637594  0.08587876  0.73923184     0.84350
C28         C  0.34432446  0.15962822  0.76337327     0.90620
N29         N  0.44753400  0.20834802  0.71898787    -0.27480
N30         N  0.46115883  0.20629384  0.73193821    -0.35340
C31         C  0.44794284  0.19019101  0.74164861     0.00860
C32         C  0.42488468  0.18145981  0.73447660     0.06880
C33         C  0.42505991  0.19347963  0.72011863    -0.06210
H34         H  0.45575971  0.18343615  0.75256925     0.07550
H35         H  0.41089280  0.19030022  0.71087681     0.08750
Cu36       Cu  0.00057462  0.21746123  0.73407889     0.44170
Cu37       Cu  0.46343840  0.22828265  0.70017610     0.41990
Cu38       Cu  0.03714484  0.22788493  0.69948053     0.43880
N39         N  0.03980981  0.20653775  0.73150755    -0.34870
N40         N  0.05311025  0.20827203  0.71843207    -0.29120
C41         C  0.07548921  0.19353882  0.71958675    -0.05220
C42         C  0.07592469  0.18197793  0.73407838     0.06990
C43         C  0.05313359  0.19082430  0.74129362     0.00790
H44         H  0.08944287  0.19018569  0.71030502     0.08440
H45         H  0.04554813  0.18442028  0.75234690     0.07520
N46         N  0.01331780  0.25039044  0.68481089    -0.36320
N47         N  0.48686749  0.25059903  0.68518842    -0.28500
C48         C  0.47793568  0.26917572  0.67534092    -0.03740
C49         C  0.99969612  0.28110705  0.66824684     0.04870
C50         C  0.02180132  0.26880023  0.67463862     0.02970
H51         H  0.45714883  0.27457345  0.67413059     0.08070
H52         H  0.04258796  0.27349179  0.67242515     0.06910
N53         N  0.44721683  0.04019069  0.71674094    -0.27480
N54         N  0.46047975  0.04120823  0.72987983    -0.35340
C55         C  0.44715770  0.05638884  0.73992628     0.00860
C56         C  0.42438755  0.06566310  0.73284805     0.06880
C57         C  0.42484184  0.05489283  0.71813867    -0.06210
H58         H  0.45473814  0.06216163  0.75110879     0.07550
H59         H  0.41089176  0.05876612  0.70890243     0.08750
Cu60       Cu  0.99969559  0.03020788  0.73243807     0.44170
Cu61       Cu  0.46322445  0.02145858  0.69743328     0.41990
Cu62       Cu  0.03684258  0.02135832  0.69850894     0.43880
N63         N  0.03908537  0.04160327  0.73066545    -0.34870
N64         N  0.05272914  0.04024851  0.71771381    -0.29120
C65         C  0.07521440  0.05501314  0.71916844    -0.05220
C66         C  0.07538643  0.06624056  0.73374194     0.06990
C67         C  0.05229618  0.05716180  0.74070093     0.00790
H68         H  0.08940184  0.05867572  0.71001920     0.08440
H69         H  0.04446856  0.06332790  0.75172372     0.07520
N70         N  0.01376432  0.49961675  0.68302089    -0.36320
N71         N  0.48732394  0.49969504  0.68245101    -0.28500
C72         C  0.47916433  0.48143576  0.67206367    -0.03740
C73         C  0.00147885  0.46931944  0.66574793     0.04870
C74         C  0.02299201  0.48127156  0.67313096     0.02970
H75         H  0.45844759  0.47650635  0.66977013     0.08070
H76         H  0.04380128  0.47581764  0.67222614     0.06910
N77         N  0.19810642  0.20732444  0.78528669    -0.27480
N78         N  0.21172798  0.20583681  0.77232652    -0.35340
C79         C  0.19826119  0.19057262  0.76225549     0.00860
C80         C  0.17504938  0.18177795  0.76919384     0.06880
C81         C  0.17539804  0.19290452  0.78379428    -0.06210
H82         H  0.20603468  0.18428572  0.75124256     0.07550
H83         H  0.16121512  0.18930157  0.79295340     0.08750
Cu84       Cu  0.25140583  0.21619707  0.77051500     0.44170
Cu85       Cu  0.21430580  0.22556389  0.80464533     0.41990
Cu86       Cu  0.28776238  0.22276353  0.80561444     0.43880
N87         N  0.29046024  0.20446303  0.77292733    -0.34870
N88         N  0.30364284  0.20489728  0.78609856    -0.29120
C89         C  0.32590714  0.19011189  0.78460455    -0.05220
C90         C  0.32639179  0.17983125  0.76979955     0.06990
C91         C  0.30374372  0.18949654  0.76274775     0.00790
H92         H  0.33971590  0.18579492  0.79384436     0.08440
H93         H  0.29622311  0.18414442  0.75148379     0.07520
N94         N  0.26460835  0.24445591  0.82098438    -0.36320
N95         N  0.23821006  0.24572698  0.82046168    -0.28500
C96         C  0.22990597  0.26412331  0.83059949    -0.03740
C97         C  0.25202018  0.27483157  0.83805006     0.04870
C98         C  0.27367501  0.26190879  0.83155910     0.02970
H99         H  0.20939928  0.27056364  0.83160241     0.08070
H100        H  0.29461395  0.26586519  0.83378541     0.06910
N101        N  0.19679872  0.04010610  0.78486749    -0.27480
N102        N  0.21013382  0.04138309  0.77178881    -0.35340
C103        C  0.19693952  0.05694109  0.76185100     0.00860
C104        C  0.17419610  0.06612828  0.76897930     0.06880
C105        C  0.17453042  0.05494399  0.78356514    -0.06210
H106        H  0.20458825  0.06301414  0.75075094     0.07550
H107        H  0.16061732  0.05867839  0.79281761     0.08750
Cu108      Cu  0.24926687  0.02996992  0.76942307     0.44170
Cu109      Cu  0.21261136  0.02117666  0.80407608     0.41990
Cu110      Cu  0.28615155  0.02073483  0.80384177     0.43880
N111        N  0.28885406  0.04052855  0.77149930    -0.34870
N112        N  0.30235554  0.03907668  0.78452785    -0.29120
C113        C  0.32507777  0.05348248  0.78312259    -0.05220
C114        C  0.32554999  0.06458311  0.76851865     0.06990
C115        C  0.30239423  0.05579121  0.76148460     0.00790
H116        H  0.33918778  0.05709960  0.79234157     0.08440
H117        H  0.29471554  0.06205134  0.75043345     0.07520
N118        N  0.26252091  0.49935268  0.81923173    -0.36320
N119        N  0.23603623  0.49945174  0.81932031    -0.28500
C120        C  0.22724091  0.48109713  0.82944711    -0.03740
C121        C  0.24918234  0.46901117  0.83602961     0.04870
C122        C  0.27118411  0.48095016  0.82929213     0.02970
H123        H  0.20645759  0.47581227  0.83118852     0.08070
H124        H  0.29190000  0.47552457  0.83088475     0.06910
C125        C  0.00237879  0.37317743  0.62582463    -0.02680
O126        O  0.22666972  0.46602117  0.49756145    -0.73130
O127        O  0.28348675  0.01375015  0.47968606    -0.74120
O128        O  0.28339497  0.46615931  0.49722130    -0.62730
O129        O  0.22656135  0.01346579  0.47994193    -0.71150
O130        O  0.22702935  0.03665566  0.50170213    -0.70700
O131        O  0.28400113  0.48921594  0.51902638    -0.61950
O132        O  0.28375758  0.03680283  0.50149250    -0.74460
O133        O  0.22696835  0.48920031  0.51932292    -0.73240
Cu134      Cu  0.25502220  0.48899006  0.48786129     1.04560
Cu135      Cu  0.25547420  0.01381973  0.51113582     1.04330
C136        C  0.21778817  0.47008377  0.51113102     0.93060
C137        C  0.29252869  0.03293105  0.48788973     0.92200
C138        C  0.29266689  0.47012537  0.51072771     0.84350
C139        C  0.21779303  0.03255108  0.48818949     0.90620
O140        O  0.22233016  0.26370281  0.51975883    -0.73130
O141        O  0.27898767  0.21613781  0.50186851    -0.74120
O142        O  0.27938503  0.26363288  0.51959446    -0.62730
O143        O  0.22218438  0.21600991  0.50217933    -0.71150
O144        O  0.22173311  0.23905938  0.48038461    -0.70700
O145        O  0.27924827  0.28675488  0.49782146    -0.61950
O146        O  0.27876216  0.23932334  0.48012108    -0.74460
O147        O  0.22250843  0.28670125  0.49794735    -0.73240
Cu148      Cu  0.25071777  0.23900915  0.51159612     1.04560
Cu149      Cu  0.25054567  0.26380920  0.48832853     1.04330
C150        C  0.21354649  0.28284542  0.51151960     0.93060
C151        C  0.28782383  0.22023987  0.48827202     0.92200
C152        C  0.28837868  0.28274830  0.51135900     0.84350
C153        C  0.21294307  0.21988201  0.48866829     0.90620
N154        N  0.17087055  0.07264301  0.46623512    -0.27480
N155        N  0.17193750  0.08591803  0.47934719    -0.35340
C156        C  0.18771006  0.07293368  0.48927530     0.00860
C157        C  0.19719355  0.05038425  0.48210611     0.06880
C158        C  0.18600891  0.05061834  0.46751173    -0.06210
H159        H  0.19359087  0.08053765  0.50043085     0.07550
H160        H  0.18984993  0.03675274  0.45825401     0.08750
Cu161      Cu  0.15947411  0.12462869  0.48189789     0.44170
Cu162      Cu  0.15148082  0.08791059  0.44705020     0.41990
Cu163      Cu  0.14758247  0.16126581  0.44794530     0.43880
N164        N  0.16888907  0.16442148  0.47989547    -0.34870
N165        N  0.16665773  0.17792562  0.46693201    -0.29120
C166        C  0.18079980  0.20083643  0.46820772    -0.05220
C167        C  0.19248596  0.20143623  0.48268324     0.06990
C168        C  0.18431260  0.17815905  0.48975711     0.00790
H169        H  0.18381791  0.21501375  0.45898516     0.08440
H170        H  0.19118043  0.17052961  0.50069705     0.07520
N171        N  0.12622086  0.13684484  0.43290500    -0.36320
N172        N  0.12791937  0.11052943  0.43236263    -0.28500
C173        C  0.11003654  0.10113084  0.42209315    -0.03740
C174        C  0.09594967  0.12246862  0.41610029     0.04870
C175        C  0.10708651  0.14476797  0.42309858     0.02970
H176        H  0.10741732  0.08023235  0.41939482     0.08070
H177        H  0.10097819  0.16527245  0.42161999     0.06910
N178        N  0.33722731  0.07524814  0.46548533    -0.27480
N179        N  0.33616124  0.08839500  0.47862872    -0.35340
C180        C  0.32153223  0.07442295  0.48874913     0.00860
C181        C  0.31270308  0.05137577  0.48166828     0.06880
C182        C  0.32316405  0.05233890  0.46691905    -0.06210
H183        H  0.31558263  0.08177580  0.49992042     0.07550
H184        H  0.31927372  0.03845991  0.45764137     0.08750
Cu185      Cu  0.34586473  0.12809032  0.48087013     0.44170
Cu186      Cu  0.35453347  0.09213020  0.44605618     0.41990
Cu187      Cu  0.35378742  0.16550490  0.44649894     0.43880
N188        N  0.33351376  0.16693214  0.47882638    -0.34870
N189        N  0.33455502  0.18056929  0.46584608    -0.29120
C190        C  0.31943183  0.20258086  0.46735229    -0.05220
C191        C  0.30831664  0.20244636  0.48196683     0.06990
C192        C  0.31782355  0.17966447  0.48889673     0.00790
H193        H  0.31555442  0.21671429  0.45823302     0.08440
H194        H  0.31199965  0.17174499  0.49997732     0.07520
N195        N  0.37547797  0.14263081  0.43092399    -0.36320
N196        N  0.37549932  0.11620233  0.43071873    -0.28500
C197        C  0.39376877  0.10783911  0.42049424    -0.03740
C198        C  0.40575378  0.12996309  0.41395030     0.04870
C199        C  0.39381489  0.15167944  0.42083748     0.02970
H200        H  0.39918921  0.08721175  0.41871745     0.08070
H201        H  0.39922878  0.17244931  0.41933845     0.06910
N202        N  0.17018558  0.43007276  0.53309903    -0.27480
N203        N  0.17170239  0.41638146  0.52015229    -0.35340
C204        C  0.18778854  0.42924764  0.51027590     0.00860
C205        C  0.19708908  0.45215029  0.51729515     0.06880
C206        C  0.18542868  0.45225337  0.53176211    -0.06210
H207        H  0.19400428  0.42134671  0.49927960     0.07550
H208        H  0.18893525  0.46652184  0.54089157     0.08750
Cu209      Cu  0.15958674  0.37735625  0.51783998     0.44170
Cu210      Cu  0.14984220  0.41508025  0.55212886     0.41990
Cu211      Cu  0.14787203  0.34139234  0.55187466     0.43880
N212        N  0.16964928  0.33791313  0.52013728    -0.34870
N213        N  0.16752139  0.32463210  0.53318555    -0.29120
C214        C  0.18175043  0.30193436  0.53205168    -0.05220
C215        C  0.19336931  0.30126126  0.51756770     0.06990
C216        C  0.18509002  0.32428178  0.51036592     0.00790
H217        H  0.18471707  0.28788558  0.54132804     0.08440
H218        H  0.19174520  0.33176797  0.49933926     0.07520
N219        N  0.12514108  0.36548357  0.56626994    -0.36320
N220        N  0.12598306  0.39187809  0.56657234    -0.28500
C221        C  0.10738960  0.40072059  0.57650237    -0.03260
C222        C  0.09380793  0.37890372  0.58254870     0.04870
C223        C  0.10590704  0.35696415  0.57588513     0.02970
H224        H  0.10399777  0.42154743  0.57899036     0.08070
H225        H  0.10048033  0.33622114  0.57749334     0.06910
N226        N  0.33871845  0.42890865  0.53254874    -0.27480
N227        N  0.33666243  0.41531525  0.51959553    -0.35340
C228        C  0.32130537  0.42877758  0.50967277     0.00860
C229        C  0.31304782  0.45194713  0.51671666     0.06880
C230        C  0.32458235  0.45158389  0.53121686    -0.06210
H231        H  0.31455927  0.42102390  0.49871261     0.07550
H232        H  0.32143712  0.46572369  0.54042633     0.08750
Cu233      Cu  0.34637125  0.37570271  0.51771574     0.44170
Cu234      Cu  0.35732005  0.41270904  0.55165924     0.41990
Cu235      Cu  0.35428303  0.33935805  0.55273269     0.43880
N236        N  0.33427229  0.33671363  0.52029848    -0.34870
N237        N  0.33523350  0.32353050  0.53343867    -0.29120
C238        C  0.32011514  0.30126146  0.53212971    -0.05220
C239        C  0.30907505  0.30077371  0.51748698     0.06990
C240        C  0.31863508  0.32342787  0.51033043     0.00790
H241        H  0.31612040  0.28742470  0.54140392     0.08440
H242        H  0.31281011  0.33092996  0.49916298     0.07520
N243        N  0.37671580  0.36283258  0.56782165    -0.36320
N244        N  0.37803894  0.38917908  0.56718772    -0.28500
C245        C  0.39676486  0.39787264  0.57711091    -0.03740
C246        C  0.40759903  0.37609368  0.58460833     0.04870
C247        C  0.39445423  0.35419204  0.57831471     0.02970
H248        H  0.40323037  0.41844225  0.57794319     0.08070
H249        H  0.39836013  0.33339117  0.58067666     0.06910
O250        O  0.36244459  0.40808658  0.23124165    -0.73130
O251        O  0.40954863  0.35064589  0.24844420    -0.74120
O252        O  0.36207897  0.35118066  0.23059722    -0.62730
O253        O  0.40996328  0.40733725  0.24909735    -0.71150
O254        O  0.38648588  0.40670158  0.27074560    -0.70700
O255        O  0.33875442  0.35060882  0.25230108    -0.61950
O256        O  0.38606043  0.34991523  0.27008894    -0.74460
O257        O  0.33909182  0.40713829  0.25292938    -0.73240
Cu258      Cu  0.38689065  0.37934760  0.23909579     1.04560
Cu259      Cu  0.36174506  0.37857566  0.26224722     1.04330
C260        C  0.34321260  0.41661147  0.23949600     0.93060
C261        C  0.40523845  0.34120663  0.26187419     0.92200
C262        C  0.34279766  0.34201965  0.23867491     0.84350
C263        C  0.40584918  0.41585497  0.26273926     0.90620
O264        O  0.15977703  0.40502427  0.25358024    -0.73130
O265        O  0.11206147  0.34792362  0.27128295    -0.74120
O266        O  0.15940364  0.34841519  0.25345940    -0.62730
O267        O  0.11255978  0.40472178  0.27155464    -0.71150
O268        O  0.08894671  0.40507513  0.24991428    -0.70700
O269        O  0.13583797  0.34845717  0.23179985    -0.61950
O270        O  0.08854760  0.34845838  0.24961221    -0.74460
O271        O  0.13615192  0.40532432  0.23194753    -0.73240
Cu272      Cu  0.13682991  0.37651696  0.26320683     1.04560
Cu273      Cu  0.11149971  0.37683752  0.24007809     1.04330
C274        C  0.15554657  0.41416215  0.24007351     0.93060
C275        C  0.09266475  0.33921684  0.26309106     0.92200
C276        C  0.15509956  0.33952010  0.23991151     0.84350
C277        C  0.09328746  0.41377263  0.26351648     0.90620
N278        N  0.44715196  0.46062498  0.28582179    -0.27480
N279        N  0.46078987  0.45979972  0.27284074    -0.35340
C280        C  0.44733963  0.44506875  0.26250333     0.00860
C281        C  0.42410886  0.43594364  0.26926708     0.06880
C282        C  0.42443526  0.44630812  0.28405634    -0.06210
H283        H  0.45513123  0.43935915  0.25138980     0.07550
H284        H  0.41022011  0.44224558  0.29313642     0.08750
Cu285      Cu  0.00043291  0.47025972  0.27110584     0.44170
Cu286      Cu  0.46318051  0.47792612  0.30555071     0.41990
Cu287      Cu  0.03655141  0.47544876  0.30621178     0.43880
N288        N  0.03947714  0.45846103  0.27332121    -0.34870
N289        N  0.05261078  0.45848713  0.28650612    -0.29120
C290        C  0.07488899  0.44379340  0.28488679    -0.05220
C291        C  0.07542717  0.43396486  0.26998589     0.06990
C292        C  0.05279361  0.44380296  0.26300183     0.00790
H293        H  0.08860975  0.43912609  0.29411269     0.08440
H294        H  0.04528064  0.43871866  0.25169573     0.07520
N295        N  0.01351537  0.99656499  0.32187605    -0.36320
N296        N  0.48709622  0.99767813  0.32157320    -0.28500
C297        C  0.47895652  0.01599922  0.33182351    -0.03740
C298        C  0.00123789  0.02689938  0.33901944     0.04870
C299        C  0.02276819  0.01408106  0.33234952     0.02970
H300        H  0.45847048  0.02243484  0.33300435     0.08070
H301        H  0.04373939  0.01833557  0.33428203     0.06910
N302        N  0.19557942  0.29363970  0.21759132    -0.27480
N303        N  0.20951252  0.29540997  0.23045613    -0.35340
C304        C  0.19638376  0.31071617  0.24052498     0.00860
C305        C  0.17307802  0.31923219  0.23367301     0.06880
C306        C  0.17300792  0.30791466  0.21912922    -0.06210
H307        H  0.20443618  0.31719748  0.25146882     0.07550
H308        H  0.15861831  0.31123406  0.21004317     0.08750
Cu309      Cu  0.24912321  0.28524131  0.23207873     0.44170
Cu310      Cu  0.21117268  0.27497695  0.19837462     0.41990
Cu311      Cu  0.28485469  0.27787950  0.19702306     0.43880
N312        N  0.28826259  0.29703884  0.22945901    -0.34870
N313        N  0.30126114  0.29639164  0.21625749    -0.29120
C314        C  0.32374005  0.31123314  0.21759630    -0.05220
C315        C  0.32454151  0.32175643  0.23234259     0.06990
C316        C  0.30186804  0.31218766  0.23951040     0.00790
H317        H  0.33751067  0.31536573  0.20830296     0.08440
H318        H  0.29457825  0.31769469  0.25077074     0.07520
N319        N  0.26103871  0.25481069  0.18251289    -0.36320
N320        N  0.23463258  0.25352622  0.18318719    -0.28500
C321        C  0.22590884  0.23413467  0.17372566    -0.03740
C322        C  0.24776292  0.22279366  0.16656937     0.04870
C323        C  0.26969453  0.23636220  0.17250082     0.02970
H324        H  0.20529537  0.22762917  0.17298363     0.08070
H325        H  0.29053566  0.23228510  0.17024612     0.06910
N326        N  0.44496442  0.29413682  0.28389902    -0.27480
N327        N  0.45879663  0.29567186  0.27100340    -0.35340
C328        C  0.44597258  0.31145440  0.26101125     0.00860
C329        C  0.42296497  0.32048708  0.26793456     0.06880
C330        C  0.42276077  0.30899172  0.28243211    -0.06210
H331        H  0.45403842  0.31779339  0.25005872     0.07550
H332        H  0.40853819  0.31256425  0.29154965     0.08750
Cu333      Cu  0.99801859  0.28420602  0.26915264     0.44170
Cu334      Cu  0.46003437  0.27507122  0.30321415     0.41990
Cu335      Cu  0.03361614  0.27510095  0.30407435     0.43880
N336        N  0.03754465  0.29468766  0.27175932    -0.34870
N337        N  0.05056452  0.29341474  0.28495654    -0.29120
C338        C  0.07331809  0.30786875  0.28377483    -0.05220
C339        C  0.07429112  0.31880125  0.26913336     0.06990
C340        C  0.05142307  0.30984556  0.26186020     0.00790
H341        H  0.08709121  0.31161489  0.29314355     0.08440
H342        H  0.04413736  0.31593544  0.25068923     0.07520
N343        N  0.00934835  0.25345574  0.31902235    -0.36320
N344        N  0.48286602  0.25340793  0.31872210    -0.28500
C345        C  0.47369519  0.23490603  0.32864745    -0.03740
C346        C  0.99539438  0.22285893  0.33549122     0.04870
C347        C  0.01763870  0.23497890  0.32913325     0.02970
H348        H  0.45286631  0.22949752  0.33005760     0.08070
H349        H  0.03830349  0.22963501  0.33102020     0.06910
N350        N  0.19613349  0.46097846  0.21789589    -0.27480
N351        N  0.20979498  0.45954789  0.23087844    -0.35340
C352        C  0.19669806  0.44382247  0.24084589     0.00860
C353        C  0.17364919  0.43468302  0.23386277     0.06880
C354        C  0.17372318  0.44605590  0.21931200    -0.06210
H355        H  0.20454342  0.43769828  0.25188386     0.07550
H356        H  0.15943834  0.44250243  0.21017462     0.08750
Cu357      Cu  0.24901553  0.47125451  0.23318385     0.44170
Cu358      Cu  0.21147073  0.48071550  0.19871268     0.41990
Cu359      Cu  0.28526449  0.48256562  0.19917292     0.43880
N360        N  0.28848456  0.46100278  0.23097332    -0.34870
N361        N  0.30184965  0.46308565  0.21795004    -0.29120
C362        C  0.32448253  0.44874151  0.21910451    -0.05220
C363        C  0.32502001  0.43706605  0.23356784     0.06990
C364        C  0.30200082  0.44543931  0.24075108     0.00790
H365        H  0.33851101  0.44565332  0.20982865     0.08440
H366        H  0.29439659  0.43873341  0.25174093     0.07520
N367        N  0.26132830  0.00506551  0.18458532    -0.36320
N368        N  0.23488683  0.00421907  0.18415758    -0.28500
C369        C  0.22617661  0.02275932  0.17415500    -0.03740
C370        C  0.24812844  0.03636055  0.16822952     0.04870
C371        C  0.27000868  0.02426699  0.17501381     0.02970
H372        H  0.20533597  0.02616262  0.17158824     0.08070
H373        H  0.29081298  0.02975557  0.17358028     0.06910
C374        C  0.00210796  0.12768069  0.37477344    -0.02680
O375        O  0.47585683  0.28567588  0.00169301    -0.73130
O376        O  0.03220955  0.23895020  0.02030945    -0.74120
O377        O  0.03263320  0.28616463  0.00225854    -0.62730
O378        O  0.47521735  0.23844885  0.01963847    -0.71150
O379        O  0.47609490  0.21495002  0.99800186    -0.70700
O380        O  0.03321720  0.26257885  0.98064835    -0.61950
O381        O  0.03277566  0.21546837  0.99866525    -0.74460
O382        O  0.47632217  0.26212495  0.98007121    -0.73240
Cu383      Cu  0.00396313  0.26319256  0.01171709     1.04560
Cu384      Cu  0.00463539  0.23791202  0.98861659     1.04330
C385        C  0.46720237  0.28137184  0.98807540     0.93060
C386        C  0.04133131  0.21969695  0.01231548     0.92200
C387        C  0.04188971  0.28199627  0.98878125     0.84350
C388        C  0.46664360  0.21906313  0.01142621     0.90620
O389        O  0.47507572  0.48805938  0.98005689    -0.73130
O390        O  0.03186135  0.03595624  0.99788798    -0.74120
O391        O  0.03203600  0.48860251  0.98014136    -0.62730
O392        O  0.47518070  0.03541981  0.99779643    -0.71150
O393        O  0.47496989  0.01210343  0.01950500    -0.70700
O394        O  0.03196486  0.46526239  0.00184243    -0.61950
O395        O  0.03193125  0.01259909  0.01958116    -0.74460
O396        O  0.47522314  0.46471626  0.00175251    -0.73240
Cu397      Cu  0.00354023  0.01286778  0.98822834     1.04560
Cu398      Cu  0.00351810  0.48780311  0.01141356     1.04330
C399        C  0.46619784  0.46875883  0.98820429     0.93060
C400        C  0.04083488  0.03189791  0.01144592     0.92200
C401        C  0.04098722  0.46948878  0.98831495     0.84350
C402        C  0.46611709  0.03125291  0.01131791     0.90620
N403        N  0.41986226  0.07199285  0.03330154    -0.27480
N404        N  0.42155027  0.08549283  0.02029219    -0.35340
C405        C  0.43701736  0.07221813  0.01037446     0.00860
C406        C  0.44573303  0.04926049  0.01743791     0.06880
C407        C  0.43437010  0.04954001  0.03197309    -0.06210
H408        H  0.44337111  0.07992674  0.99933992     0.07550
H409        H  0.43771105  0.03541163  0.04116632     0.08750
Cu410      Cu  0.41086730  0.12475923  0.01790818     0.44170
Cu411      Cu  0.40046887  0.08757762  0.05237409     0.41990
Cu412      Cu  0.40001699  0.16128840  0.05176867     0.43880
N413        N  0.42183294  0.16414874  0.02004320    -0.34870
N414        N  0.41983481  0.17763005  0.03302194    -0.29120
C415        C  0.43438756  0.20028570  0.03183115    -0.05220
C416        C  0.44612490  0.20072417  0.01739012     0.06990
C417        C  0.43757586  0.17761496  0.01025339     0.00790
H418        H  0.43751383  0.21444386  0.04106105     0.08440
H419        H  0.44420071  0.16998217  0.99927386     0.07520
N420        N  0.37666823  0.13758306  0.06611020    -0.36320
N421        N  0.37697793  0.11119428  0.06654202    -0.28500
C422        C  0.35787539  0.10260703  0.07627997    -0.03740
C423        C  0.34452592  0.12459187  0.08202779     0.04870
C424        C  0.35728488  0.14636979  0.07544997     0.02970
H425        H  0.35392698  0.08183929  0.07880526     0.08070
H426        H  0.35219342  0.16716094  0.07689299     0.06910
N427        N  0.08668520  0.42889514  0.96595225    -0.27480
N428        N  0.08583609  0.41559793  0.97905259    -0.35340
C429        C  0.07074853  0.42889783  0.98916640     0.00860
C430        C  0.06144459  0.45165075  0.98211788     0.06880
C431        C  0.07206843  0.45122948  0.96740916    -0.06210
H432        H  0.06495416  0.42127949  0.00032195     0.07550
H433        H  0.06797348  0.46506131  0.95816852     0.08750
Cu434      Cu  0.09691335  0.37640395  0.98126144     0.44170
Cu435      Cu  0.10442480  0.41297645  0.94647919     0.41990
Cu436      Cu  0.10483284  0.33964815  0.94669803     0.43880
N437        N  0.08617964  0.33691893  0.97928763    -0.34870
N438        N  0.08719954  0.32346117  0.96624782    -0.29120
C439        C  0.07284941  0.30076651  0.96781951    -0.05220
C440        C  0.06222379  0.30026312  0.98253995     0.06990
C441        C  0.07124085  0.32338020  0.98946946     0.00790
H442        H  0.06891060  0.28670034  0.95864201     0.08440
H443        H  0.06533999  0.33102412  0.00058360     0.07520
N444        N  0.12562380  0.36327396  0.93103099    -0.36320
N445        N  0.12546036  0.38969769  0.93095724    -0.28500
C446        C  0.14365185  0.39858468  0.92076218    -0.03740
C447        C  0.15571435  0.37677468  0.91410161     0.04870
C448        C  0.14392807  0.35473985  0.92087483     0.02970
H449        H  0.14901585  0.41933534  0.91912185     0.08070
H450        H  0.14955944  0.33411406  0.91933048     0.06910
N451        N  0.08685156  0.07280583  0.03391602    -0.27480
N452        N  0.08533972  0.08664054  0.02103722    -0.35340
C453        C  0.06997357  0.07341900  0.01090287     0.00860
C454        C  0.06118517  0.05012589  0.01772306     0.06880
C455        C  0.07237862  0.05019521  0.03231716    -0.06210
H456        H  0.06370558  0.08134760  0.99991514     0.07550
H457        H  0.06885834  0.03583823  0.04138956     0.08750
Cu458      Cu  0.09627942  0.12611821  0.01946865     0.44170
Cu459      Cu  0.10548397  0.08852897  0.05323892     0.41990
Cu460      Cu  0.10391661  0.16199491  0.05466684     0.43880
N461        N  0.08541263  0.16530600  0.02198802    -0.34870
N462        N  0.08604996  0.17837236  0.03517988    -0.29120
C463        C  0.07161842  0.20087145  0.03366075    -0.05220
C464        C  0.06140069  0.20161487  0.01881463     0.06990
C465        C  0.07072338  0.17887524  0.01178569     0.00790
H466        H  0.06747367  0.21468270  0.04290043     0.08440
H467        H  0.06525130  0.17148045  0.00051609     0.07520
N468        N  0.12598819  0.13807022  0.06959530    -0.36320
N469        N  0.12682779  0.11172558  0.06882594    -0.28500
C470        C  0.14578643  0.10283118  0.07847420    -0.03740
C471        C  0.15733703  0.12446917  0.08591995     0.04870
C472        C  0.14426981  0.14648835  0.07990871     0.02970
H473        H  0.15201698  0.08225565  0.07905765     0.08070
H474        H  0.14871901  0.16724920  0.08224772     0.06910
N475        N  0.42010250  0.42749529  0.96592695    -0.27480
N476        N  0.42166149  0.41389894  0.97889284    -0.35340
C477        C  0.43702666  0.42731309  0.98893893     0.00860
C478        C  0.44580907  0.45048264  0.98198762     0.06880
C479        C  0.43458072  0.45015061  0.96739425    -0.06210
H480        H  0.44333319  0.41956489  0.99996258     0.07550
H481        H  0.43809903  0.46434402  0.95823696     0.08750
Cu482      Cu  0.41106319  0.37437481  0.98078081     0.44170
Cu483      Cu  0.40145245  0.41135013  0.94666103     0.41990
Cu484      Cu  0.40350988  0.33790257  0.94588035     0.43880
N485        N  0.42247720  0.33529734  0.97846052    -0.34870
N486        N  0.42174397  0.32202823  0.96534057    -0.29120
C487        C  0.43644081  0.29971849  0.96686037    -0.05220
C488        C  0.44695429  0.29929629  0.98163216     0.06990
C489        C  0.43752605  0.32203447  0.98862906     0.00790
H490        H  0.44053463  0.28581780  0.95765776     0.08440
H491        H  0.44310964  0.32961882  0.99983904     0.07520
N492        N  0.38157446  0.36118882  0.93062100    -0.36320
N493        N  0.38060937  0.38755450  0.93106772    -0.28500
C494        C  0.36208183  0.39598056  0.92100017    -0.03740
C495        C  0.35095968  0.37398797  0.91366997     0.04870
C496        C  0.36377723  0.35227434  0.92016706     0.02970
H497        H  0.35589057  0.41652021  0.91994125     0.08070
H498        H  0.35957659  0.33141037  0.91799472     0.06910
C499        C  0.25416936  0.12874174  0.12564086    -0.02680
C500        C  0.25252714  0.37349866  0.87558617    -0.02680
C501        C  0.30854923  0.35272922  0.90478280    -0.09350
C502        C  0.32727038  0.37345693  0.90334022     0.06850
C503        C  0.32266689  0.39331451  0.89227327    -0.03110
C504        C  0.29906843  0.39301787  0.88365061    -0.07560
C505        C  0.27895712  0.37310988  0.88549642     0.05960
C506        C  0.28505007  0.35201588  0.89600916    -0.02590
Br507      Br  0.26239363  0.32164420  0.90003516    -0.02280
H508        H  0.31191351  0.33702915  0.91309978     0.09880
H509        H  0.29747867  0.40826369  0.87497722     0.07890
Br510      Br  0.34879278  0.42019887  0.88723167    -0.02710
C511        C  0.20006859  0.14551976  0.09426527    -0.09350
C512        C  0.18157989  0.12464484  0.09584071     0.06850
C513        C  0.18720033  0.10424138  0.10643378    -0.03110
C514        C  0.21079709  0.10507785  0.11507634    -0.07560
C515        C  0.22880943  0.12714695  0.11465660     0.05960
C516        C  0.22330780  0.14693018  0.10321494    -0.02590
Br517      Br  0.24525584  0.17766417  0.09909928    -0.02280
H518        H  0.19653231  0.16101842  0.08584536     0.09880
H519        H  0.21446587  0.08780705  0.12209632     0.07890
Br520      Br  0.16270147  0.07551033  0.11075424    -0.02710
C521        C  0.22817302  0.37680736  0.90204125    -0.09350
C522        C  0.22661382  0.37509695  0.88577638     0.06850
C523        C  0.20026938  0.37595656  0.87921654    -0.03110
C524        C  0.17762199  0.37658811  0.88864441    -0.07560
C525        C  0.17996802  0.37696631  0.90459207     0.05960
C526        C  0.20540647  0.37744777  0.91129320    -0.02590
Br527      Br  0.21008898  0.37916010  0.93316644    -0.02280
H528        H  0.24707238  0.37833739  0.90793571     0.09880
H529        H  0.15789923  0.37654326  0.88346558     0.07890
Br530      Br  0.19235574  0.37475703  0.85758042    -0.02710
C531        C  0.32059329  0.14662256  0.10332361    -0.09350
C532        C  0.32163944  0.12552965  0.09284779     0.06850
C533        C  0.30019087  0.10725862  0.09240950    -0.03110
C534        C  0.27934288  0.10943804  0.10301959    -0.07560
C535        C  0.27860210  0.12974063  0.11441598     0.05960
C536        C  0.29926737  0.14979558  0.11353417    -0.02590
Br537      Br  0.30029598  0.18456558  0.12304210    -0.02280
H538        H  0.33641084  0.16150776  0.10325441     0.09880
H539        H  0.26372451  0.09437846  0.10263705     0.07890
Br540      Br  0.29704211  0.07958014  0.07725811    -0.02710
C541        C  0.27079301  0.06118519  0.14729420    -0.09350
C542        C  0.24906459  0.05926089  0.15734028     0.06850
C543        C  0.23043577  0.08015174  0.15749482    -0.03110
C544        C  0.23336163  0.10159646  0.14734898    -0.07560
C545        C  0.25469534  0.10363149  0.13662425     0.05960
C546        C  0.27457198  0.08303894  0.13747820    -0.02590
Br547      Br  0.30994582  0.08284365  0.12861965    -0.02280
H548        H  0.28579125  0.04569554  0.14746740     0.09880
H549        H  0.21828185  0.11698590  0.14768216     0.07890
Br550      Br  0.20160398  0.08223507  0.17196708    -0.02710
C551        C  0.49868985  0.15096311  0.34813966    -0.09350
C552        C  0.99967504  0.15302460  0.36439470     0.06850
C553        C  0.99624594  0.17925021  0.37072755    -0.03110
C554        C  0.99414637  0.20150830  0.36108290    -0.07560
C555        C  0.99516690  0.19884133  0.34516205     0.05960
C556        C  0.49699235  0.17337889  0.33867894    -0.02590
Br557      Br  0.49708990  0.16819261  0.31682909    -0.02280
H558        H  0.49867683  0.13194430  0.34240224     0.09880
H559        H  0.99262489  0.22124749  0.36608146     0.07890
Br560      Br  0.99752702  0.18786866  0.39226954    -0.02710
C561        C  0.26857026  0.18015226  0.15866142    -0.09350
C562        C  0.24819297  0.19879329  0.15662753     0.06850
C563        C  0.22875693  0.19390578  0.14529526    -0.03110
C564        C  0.23029734  0.17107163  0.13616422    -0.07560
C565        C  0.25229287  0.15331785  0.13682952     0.05960
C566        C  0.27075711  0.15767620  0.14919144    -0.02590
Br567      Br  0.30132451  0.13597304  0.15350981    -0.02280
H568        H  0.28327724  0.18323174  0.16765468     0.09880
H569        H  0.21372946  0.16794803  0.12848122     0.07890
Br570      Br  0.20055726  0.21849264  0.14065878    -0.02710
C571        C  0.02246091  0.06991429  0.34658596    -0.09350
C572        C  0.00221700  0.05098796  0.34893457     0.06850
C573        C  0.48337608  0.05568510  0.36054259    -0.03110
C574        C  0.48402197  0.07967425  0.36876010    -0.07560
C575        C  0.00268008  0.10049989  0.36550514     0.05960
C576        C  0.02333746  0.09389986  0.35481889    -0.02590
Br577      Br  0.05381408  0.11583435  0.35018903    -0.02280
H578        H  0.03768737  0.06625544  0.33801458     0.09880
H579        H  0.46980941  0.08123967  0.37801170     0.07890
Br580      Br  0.45741850  0.02930429  0.36660779    -0.02710
C581        C  0.47808510  0.13024560  0.40150853    -0.09350
C582        C  0.47634082  0.12859945  0.38522511     0.06850
C583        C  0.44986998  0.12854914  0.37881672    -0.03110
C584        C  0.42733760  0.12912981  0.38835642    -0.07560
C585        C  0.42988862  0.13012923  0.40429633     0.05960
C586        C  0.45543107  0.13084830  0.41086310    -0.02590
Br587      Br  0.46043123  0.13294238  0.43270508    -0.02280
H588        H  0.49697583  0.13231963  0.40735380     0.09880
H589        H  0.40754748  0.12858181  0.38327077     0.07890
Br590      Br  0.44180863  0.12614998  0.35723080    -0.02710
C591        C  0.07187709  0.14347735  0.39445686    -0.09350
C592        C  0.07343009  0.12243558  0.40494758     0.06850
C593        C  0.05318926  0.10282277  0.40474623    -0.03110
C594        C  0.03180161  0.10510023  0.39449942    -0.07560
C595        C  0.02861913  0.12730278  0.38455221     0.05960
C596        C  0.05053624  0.14606603  0.38413702    -0.02590
Br597      Br  0.05701540  0.17448185  0.36958610    -0.02280
H598        H  0.08798443  0.15804386  0.39409408     0.09880
H599        H  0.01638979  0.08984320  0.39495978     0.07890
Br600      Br  0.05149068  0.07379883  0.41910942    -0.02710
C601        C  0.02880023  0.39368599  0.60373015    -0.09350
C602        C  0.02743339  0.37293748  0.61483066     0.06850
C603        C  0.04828132  0.35331040  0.61406011    -0.03110
C604        C  0.06982588  0.35690439  0.60399423    -0.07560
C605        C  0.07117493  0.37815676  0.59362594     0.05960
C606        C  0.05001363  0.39648147  0.59338379    -0.02590
Br607      Br  0.04730644  0.42463080  0.57852812    -0.02280
H608        H  0.01304810  0.40837745  0.60322613     0.09880
H609        H  0.08554029  0.34213407  0.60389676     0.07890
Br610      Br  0.04936189  0.31848704  0.62351750    -0.02710
C611        C  0.45919470  0.39556771  0.61485913    -0.09350
C612        C  0.47732524  0.37384068  0.61466206     0.06850
C613        C  0.47245473  0.35407039  0.60308116    -0.03110
C614        C  0.44963558  0.35518237  0.59375771    -0.07560
C615        C  0.43110890  0.37582975  0.59505703     0.05960
C616        C  0.43607378  0.39612637  0.60585033    -0.02590
Br617      Br  0.41124664  0.42434485  0.60994815    -0.02280
H618        H  0.46231030  0.41276811  0.62205401     0.09880
H619        H  0.44656711  0.33977595  0.58518832     0.07890
Br620      Br  0.99510490  0.32418014  0.59891976    -0.02710
C621        C  0.24995040  0.39704038  0.84883782    -0.09350
C622        C  0.25123749  0.39906227  0.86510346     0.06850
C623        C  0.25007218  0.42552894  0.87137648    -0.03110
C624        C  0.24930444  0.44784740  0.86170996    -0.07560
C625        C  0.24917798  0.44506000  0.84578287     0.05960
C626        C  0.24922323  0.41948563  0.83934551    -0.02590
Br627      Br  0.24801532  0.41417467  0.81751324    -0.02280
H628        H  0.24872041  0.37801608  0.84311782     0.09880
H629        H  0.24902879  0.46766868  0.86668765     0.07890
Br630      Br  0.25085361  0.43404576  0.89293452    -0.02710
C631        C  0.27372395  0.31687916  0.84702280    -0.09350
C632        C  0.25273995  0.29841436  0.84838500     0.06850
C633        C  0.23272962  0.30323368  0.85932716    -0.03110
C634        C  0.23304547  0.32687892  0.86782978    -0.07560
C635        C  0.25310012  0.34684246  0.86596124     0.05960
C636        C  0.27445406  0.34042674  0.85568839    -0.02590
Br637      Br  0.30515691  0.36274473  0.85181229    -0.02280
H638        H  0.28957984  0.31331143  0.83882794     0.09880
H639        H  0.21764824  0.32865124  0.87640759     0.07890
Br640      Br  0.20553707  0.27739147  0.86432295    -0.02710
C641        C  0.48230596  0.42594517  0.65704457    -0.09350
C642        C  0.00199584  0.44569945  0.65541846     0.06850
C643        C  0.02206116  0.44200411  0.64433116    -0.03110
C644        C  0.02249291  0.41873138  0.63547381    -0.07560
C645        C  0.00234398  0.39868655  0.63653515     0.05960
C646        C  0.48216820  0.40286791  0.64796446    -0.02590
Br647      Br  0.45228520  0.37929545  0.65161392    -0.02280
H648        H  0.46678860  0.42835362  0.66559550     0.09880
H649        H  0.03947690  0.41668490  0.62801226     0.07890
Br650      Br  0.04866716  0.96869368  0.63978008    -0.02710
C651        C  0.48147053  0.32896197  0.63608889    -0.09350
C652        C  0.00171971  0.34886095  0.63711022     0.06850
C653        C  0.02027189  0.34632425  0.64957896    -0.03110
C654        C  0.01896043  0.32431813  0.65948777    -0.07560
C655        C  0.99964538  0.30423044  0.65763132     0.05960
C656        C  0.48079064  0.30673372  0.64574542    -0.02590
Br657      Br  0.45456627  0.27965882  0.64117368    -0.02280
H658        H  0.46545337  0.33020857  0.62788346     0.09880
H659        H  0.03351722  0.32274982  0.66867074     0.07890
Br660      Br  0.05015469  0.36994004  0.65318948    -0.02710
O661        O  0.16036143  0.59577867  0.74936111    -0.73130
O662        O  0.11306256  0.65265851  0.73181977    -0.74120
O663        O  0.16073524  0.65243698  0.74944412    -0.62730
O664        O  0.11274330  0.59574105  0.73173103    -0.71150
O665        O  0.08956239  0.59567188  0.75348719    -0.70700
O666        O  0.13755868  0.65240991  0.77120093    -0.61950
O667        O  0.08993473  0.65229513  0.75359232    -0.74460
O668        O  0.13718194  0.59552674  0.77111668    -0.73240
Cu669      Cu  0.13758285  0.62415896  0.73984205     1.04560
Cu670      Cu  0.11270488  0.62397453  0.76309114     1.04330
C671        C  0.15627233  0.58666210  0.76288568     0.93060
C672        C  0.09396955  0.66146207  0.74007801     0.92200
C673        C  0.15677627  0.66138078  0.76300528     0.84350
C674        C  0.09354696  0.58673213  0.73992713     0.90620
O675        O  0.41091229  0.65103268  0.75368938    -0.73130
O676        O  0.36319802  0.59364856  0.77069725    -0.74120
O677        O  0.41055769  0.59441485  0.75288390    -0.62730
O678        O  0.36352747  0.65043831  0.77142806    -0.71150
O679        O  0.34010871  0.65111205  0.74972468    -0.70700
O680        O  0.38717290  0.59505701  0.73117182    -0.61950
O681        O  0.33973243  0.59446922  0.74901126    -0.74460
O682        O  0.38751834  0.65199728  0.73198023    -0.73240
Cu683      Cu  0.38792022  0.62234542  0.76290780     1.04560
Cu684      Cu  0.36276624  0.62318003  0.73972454     1.04330
C685        C  0.40678407  0.66062923  0.74029462     0.93060
C686        C  0.34383499  0.58504953  0.76245975     0.92200
C687        C  0.40637596  0.58587874  0.73923191     0.84350
C688        C  0.34432451  0.65962822  0.76337338     0.90620
N689        N  0.44753414  0.70834794  0.71898784    -0.27480
N690        N  0.46115894  0.70629374  0.73193819    -0.35340
C691        C  0.44794292  0.69019092  0.74164858     0.00860
C692        C  0.42488476  0.68145974  0.73447657     0.06880
C693        C  0.42506004  0.69347955  0.72011860    -0.06210
H694        H  0.45575976  0.68343608  0.75256924     0.07550
H695        H  0.41089292  0.69030017  0.71087677     0.08750
Cu696      Cu  0.00057471  0.71746111  0.73407896     0.44170
Cu697      Cu  0.46343861  0.72828272  0.70017609     0.41990
Cu698      Cu  0.03714508  0.72788480  0.69948072     0.43880
N699        N  0.03980992  0.70653766  0.73150772    -0.34870
N700        N  0.05311043  0.70827198  0.71843226    -0.29120
C701        C  0.07548940  0.69353882  0.71958696    -0.05220
C702        C  0.07592483  0.68197792  0.73407858     0.06990
C703        C  0.05313369  0.69082422  0.74129380     0.00790
H704        H  0.08944310  0.69018572  0.71030525     0.08440
H705        H  0.04554818  0.68442015  0.75234706     0.07520
N706        N  0.01331827  0.75039041  0.68481107    -0.36320
N707        N  0.48686796  0.75059914  0.68518851    -0.28500
C708        C  0.47793639  0.76917591  0.67534098    -0.03740
C709        C  0.99969701  0.78110711  0.66824699     0.04870
C710        C  0.02180203  0.76880016  0.67463885     0.02970
H711        H  0.45714958  0.77457374  0.67413053     0.08070
H712        H  0.04258873  0.77349157  0.67242545     0.06910
N713        N  0.44721686  0.54019072  0.71674099    -0.27480
N714        N  0.46047979  0.54120824  0.72987987    -0.35340
C715        C  0.44715772  0.55638881  0.73992634     0.00860
C716        C  0.42438756  0.56566307  0.73284812     0.06880
C717        C  0.42484185  0.55489283  0.71813873    -0.06210
H718        H  0.45473817  0.56216159  0.75110885     0.07550
H719        H  0.41089177  0.55876614  0.70890249     0.08750
Cu720      Cu  0.99969566  0.53020792  0.73243804     0.44170
Cu721      Cu  0.46322451  0.52145873  0.69743331     0.41990
Cu722      Cu  0.03684267  0.52135821  0.69850887     0.43880
N723        N  0.03908545  0.54160329  0.73066538    -0.34870
N724        N  0.05272923  0.54024851  0.71771374    -0.29120
C725        C  0.07521449  0.55501315  0.71916837    -0.05220
C726        C  0.07538652  0.56624059  0.73374188     0.06990
C727        C  0.05229626  0.55716183  0.74070086     0.00790
H728        H  0.08940195  0.55867570  0.71001915     0.08440
H729        H  0.04446864  0.56332792  0.75172365     0.07520
N730        N  0.01376439  0.99961676  0.68302097    -0.36320
N731        N  0.48732402  0.99969489  0.68245104    -0.28500
C732        C  0.47916457  0.98143553  0.67206370    -0.03740
C733        C  0.00147923  0.96931933  0.66574802     0.04870
C734        C  0.02299225  0.98127160  0.67313109     0.02970
H735        H  0.45844788  0.97650599  0.66977011     0.08070
H736        H  0.04380157  0.97581780  0.67222632     0.06910
N737        N  0.19810650  0.70732447  0.78528694    -0.27480
N738        N  0.21172807  0.70583678  0.77232678    -0.35340
C739        C  0.19826131  0.69057251  0.76225577     0.00860
C740        C  0.17504951  0.68177782  0.76919411     0.06880
C741        C  0.17539814  0.69290448  0.78379455    -0.06210
H742        H  0.20603483  0.68428560  0.75124284     0.07550
H743        H  0.16121518  0.68930159  0.79295365     0.08750
Cu744      Cu  0.25140587  0.71619712  0.77051520     0.44170
Cu745      Cu  0.21430587  0.72556431  0.80464554     0.41990
Cu746      Cu  0.28776252  0.72276387  0.80561452     0.43880
N747        N  0.29046027  0.70446301  0.77292748    -0.34870
N748        N  0.30364293  0.70489734  0.78609869    -0.29120
C749        C  0.32590722  0.69011194  0.78460468    -0.05220
C750        C  0.32639182  0.67983122  0.76979968     0.06990
C751        C  0.30374370  0.68949647  0.76274790     0.00790
H752        H  0.33971604  0.68579505  0.79384446     0.08440
H753        H  0.29622305  0.68414431  0.75148397     0.07520
N754        N  0.26460862  0.74445653  0.82098441    -0.36320
N755        N  0.23821032  0.74572764  0.82046178    -0.28500
C756        C  0.22990637  0.76412397  0.83059966    -0.03740
C757        C  0.25202069  0.77483220  0.83805016     0.04870
C758        C  0.27367542  0.76190941  0.83155911     0.02970
H759        H  0.20939968  0.77056424  0.83160272     0.08070
H760        H  0.29461439  0.76586570  0.83378539     0.06910
N761        N  0.19679873  0.54010596  0.78486748    -0.27480
N762        N  0.21013387  0.54138295  0.77178881    -0.35340
C763        C  0.19693958  0.55694093  0.76185099     0.00860
C764        C  0.17419614  0.56612810  0.76897928     0.06880
C765        C  0.17453042  0.55494382  0.78356511    -0.06210
H766        H  0.20458834  0.56301401  0.75075094     0.07550
H767        H  0.16061732  0.55867824  0.79281758     0.08750
Cu768      Cu  0.24926697  0.52996989  0.76942312     0.44170
Cu769      Cu  0.21261130  0.52117670  0.80407613     0.41990
Cu770      Cu  0.28615147  0.52073531  0.80384191     0.43880
N771        N  0.28885415  0.54052856  0.77149936    -0.34870
N772        N  0.30235556  0.53907683  0.78452795    -0.29120
C773        C  0.32507779  0.55348262  0.78312269    -0.05220
C774        C  0.32555008  0.56458312  0.76851872     0.06990
C775        C  0.30239437  0.55579113  0.76148464     0.00790
H776        H  0.33918772  0.55709986  0.79234169     0.08440
H777        H  0.29471574  0.56205117  0.75043347     0.07520
N778        N  0.26252089  0.99935210  0.81923156    -0.36320
N779        N  0.23603621  0.99945140  0.81932019    -0.28500
C780        C  0.22724077  0.98109688  0.82944702    -0.03740
C781        C  0.24918212  0.96901070  0.83602948     0.04870
C782        C  0.27118397  0.98094948  0.82929195     0.02970
H783        H  0.20645741  0.97581229  0.83118850     0.08070
H784        H  0.29189982  0.97552377  0.83088459     0.06910
C785        C  0.00238047  0.87317740  0.62582469    -0.02680
O786        O  0.22667434  0.96602077  0.49756198    -0.73130
O787        O  0.28348299  0.51375020  0.47968635    -0.74120
O788        O  0.28339961  0.96615909  0.49722095    -0.62730
O789        O  0.22655764  0.51346625  0.47994130    -0.71150
O790        O  0.22702483  0.53665614  0.50170148    -0.70700
O791        O  0.28400649  0.98921561  0.51902607    -0.61950
O792        O  0.28375308  0.53680303  0.50149275    -0.74460
O793        O  0.22697371  0.98919985  0.51932347    -0.73240
Cu794      Cu  0.25502638  0.98898978  0.48786142     1.04560
Cu795      Cu  0.25546919  0.51382010  0.51113566     1.04330
C796        C  0.21779316  0.97008340  0.51113164     0.93060
C797        C  0.29252475  0.53293106  0.48789012     0.92200
C798        C  0.29267194  0.97012507  0.51072727     0.84350
C799        C  0.21778916  0.53255171  0.48818867     0.90620
O800        O  0.22232955  0.76370351  0.51975856    -0.73130
O801        O  0.27898677  0.71613792  0.50186868    -0.74120
O802        O  0.27938443  0.76363291  0.51959468    -0.62730
O803        O  0.22218347  0.71601075  0.50217894    -0.71150
O804        O  0.22173305  0.73906045  0.48038429    -0.70700
O805        O  0.27924847  0.78675495  0.49782168    -0.61950
O806        O  0.27876208  0.73932351  0.48012126    -0.74460
O807        O  0.22250862  0.78670215  0.49794715    -0.73240
Cu808      Cu  0.25071697  0.73900957  0.51159605     1.04560
Cu809      Cu  0.25054576  0.76380976  0.48832851     1.04330
C810        C  0.21354632  0.78284629  0.51151932     0.93060
C811        C  0.28782329  0.72023990  0.48827228     0.92200
C812        C  0.28837857  0.78274820  0.51135927     0.84350
C813        C  0.21294254  0.71988312  0.48866783     0.90620
N814        N  0.17086905  0.57264512  0.46623338    -0.27480
N815        N  0.17193532  0.58591978  0.47934559    -0.35340
C816        C  0.18770683  0.57293484  0.48927399     0.00860
C817        C  0.19719038  0.55038534  0.48210489     0.06880
C818        C  0.18600684  0.55062006  0.46751021    -0.06210
H819        H  0.19358696  0.58053843  0.50042974     0.07550
H820        H  0.18984824  0.53675459  0.45825249     0.08750
Cu821      Cu  0.15947246  0.62463062  0.48189631     0.44170
Cu822      Cu  0.15148065  0.58791370  0.44704819     0.41990
Cu823      Cu  0.14758164  0.66126892  0.44794398     0.43880
N824        N  0.16888797  0.66442334  0.47989429    -0.34870
N825        N  0.16665694  0.67792790  0.46693095    -0.29120
C826        C  0.18079930  0.70083849  0.46820695    -0.05220
C827        C  0.19248530  0.70143772  0.48268253     0.06990
C828        C  0.18431157  0.67816042  0.48975613     0.00790
H829        H  0.18381768  0.71501607  0.45898455     0.08440
H830        H  0.19117916  0.67053057  0.50069602     0.07520
N831        N  0.12622026  0.63684828  0.43290335    -0.36320
N832        N  0.12791922  0.61053292  0.43236066    -0.28500
C833        C  0.11003634  0.60113441  0.42209119    -0.03740
C834        C  0.09594882  0.62247213  0.41609871     0.04870
C835        C  0.10708550  0.64477143  0.42309717     0.02970
H836        H  0.10741736  0.58023597  0.41939271     0.08070
H837        H  0.10097661  0.66527582  0.42161898     0.06910
N838        N  0.33722445  0.57524733  0.46548612    -0.27480
N839        N  0.33615845  0.58839423  0.47862949    -0.35340
C840        C  0.32152903  0.57442243  0.48874983     0.00860
C841        C  0.31269961  0.55137542  0.48166891     0.06880
C842        C  0.32316081  0.55233835  0.46691976    -0.06210
H843        H  0.31557935  0.58177538  0.49992109     0.07550
H844        H  0.31927031  0.53845948  0.45764204     0.08750
Cu845      Cu  0.34586264  0.62808938  0.48087091     0.44170
Cu846      Cu  0.35453061  0.59212896  0.44605694     0.41990
Cu847      Cu  0.35378608  0.66550355  0.44649960     0.43880
N848        N  0.33351254  0.66693146  0.47882702    -0.34870
N849        N  0.33455412  0.68056847  0.46584669    -0.29120
C850        C  0.31943129  0.70258030  0.46735276    -0.05220
C851        C  0.30831599  0.70244612  0.48196726     0.06990
C852        C  0.31782247  0.67966416  0.48889728     0.00790
H853        H  0.31555413  0.71671365  0.45823342     0.08440
H854        H  0.31199828  0.67174487  0.49997787     0.07520
N855        N  0.37547580  0.64262895  0.43092459    -0.36320
N856        N  0.37549650  0.61620048  0.43071932    -0.28500
C857        C  0.39376553  0.60783678  0.42049473    -0.03740
C858        C  0.40575097  0.62996048  0.41395078     0.04870
C859        C  0.39381277  0.65167713  0.42083801     0.02970
H860        H  0.39918545  0.58720928  0.41871792     0.08070
H861        H  0.39922716  0.67244687  0.41933895     0.06910
N862        N  0.17018919  0.93007357  0.53309955    -0.27480
N863        N  0.17170563  0.91638241  0.52015273    -0.35340
C864        C  0.18779245  0.92924804  0.51027648     0.00860
C865        C  0.19709385  0.95215022  0.51729586     0.06880
C866        C  0.18543324  0.95225358  0.53176278    -0.06210
H867        H  0.19400783  0.92134710  0.49928012     0.07550
H868        H  0.18894010  0.96652193  0.54089227     0.08750
Cu869      Cu  0.15958818  0.87735784  0.51784002     0.44170
Cu870      Cu  0.14984457  0.91508161  0.55212918     0.41990
Cu871      Cu  0.14787310  0.84139380  0.55187450     0.43880
N872        N  0.16964978  0.83791445  0.52013704    -0.34870
N873        N  0.16752175  0.82463335  0.53318526    -0.29120
C874        C  0.18175042  0.80193541  0.53205133    -0.05220
C875        C  0.19336925  0.80126227  0.51756734     0.06990
C876        C  0.18509029  0.82428296  0.51036562     0.00790
H877        H  0.18471697  0.78788658  0.54132768     0.08440
H878        H  0.19174565  0.83176919  0.49933901     0.07520
N879        N  0.12514263  0.86548505  0.56626995    -0.36320
N880        N  0.12598483  0.89187956  0.56657250    -0.28500
C881        C  0.10739146  0.90072198  0.57650262    -0.03260
C882        C  0.09380971  0.87890504  0.58254887     0.04870
C883        C  0.10590862  0.85696556  0.57588513     0.02970
H884        H  0.10399975  0.92154879  0.57899077     0.08070
H885        H  0.10048180  0.83622255  0.57749322     0.06910
N886        N  0.33872262  0.92890759  0.53254823    -0.27480
N887        N  0.33666635  0.91531413  0.51959506    -0.35340
C888        C  0.32130977  0.92877685  0.50967222     0.00860
C889        C  0.31305283  0.95194669  0.51671605     0.06880
C890        C  0.32458722  0.95158321  0.53121627    -0.06210
H891        H  0.31456335  0.92102319  0.49871212     0.07550
H892        H  0.32144211  0.96572303  0.54042574     0.08750
Cu893      Cu  0.34637370  0.87570116  0.51771561     0.44170
Cu894      Cu  0.35732298  0.91270754  0.55165890     0.41990
Cu895      Cu  0.35428459  0.83935664  0.55273285     0.43880
N896        N  0.33427350  0.83671249  0.52029867    -0.34870
N897        N  0.33523437  0.82352948  0.53343891    -0.29120
C898        C  0.32011536  0.80126084  0.53213005    -0.05220
C899        C  0.30907523  0.80077325  0.51748732     0.06990
C900        C  0.31863590  0.82342705  0.51033069     0.00790
H901        H  0.31612032  0.78742424  0.54140428     0.08440
H902        H  0.31281122  0.83092914  0.49916318     0.07520
N903        N  0.37671767  0.86283113  0.56782173    -0.36320
N904        N  0.37804104  0.88917761  0.56718764    -0.28500
C905        C  0.39676689  0.89787125  0.57711083    -0.03740
C906        C  0.40760081  0.87609240  0.58460842     0.04870
C907        C  0.39445596  0.85419069  0.57831490     0.02970
H908        H  0.40323256  0.91844083  0.57794297     0.08070
H909        H  0.39836174  0.83338984  0.58067701     0.06910
O910        O  0.36243071  0.90809005  0.23124195    -0.73130
O911        O  0.40953796  0.85065262  0.24844562    -0.74120
O912        O  0.36206838  0.85118429  0.23059861    -0.62730
O913        O  0.40994972  0.90734408  0.24909747    -0.71150
O914        O  0.38647264  0.90670870  0.27074584    -0.70700
O915        O  0.33874369  0.85061244  0.25230242    -0.61950
O916        O  0.38604970  0.84992217  0.27009034    -0.74460
O917        O  0.33907826  0.90714186  0.25292979    -0.73240
Cu918      Cu  0.38687849  0.87935281  0.23909660     1.04560
Cu919      Cu  0.36173302  0.87858100  0.26224808     1.04330
C920        C  0.34319825  0.91661432  0.23949618     0.93060
C921        C  0.40522797  0.84121373  0.26187574     0.92200
C922        C  0.34278747  0.84202279  0.23867640     0.84350
C923        C  0.40583547  0.91586239  0.26273923     0.90620
O924        O  0.15976298  0.90501982  0.25358021    -0.73130
O925        O  0.11205011  0.84791615  0.27128235    -0.74120
O926        O  0.15939243  0.84841068  0.25345900    -0.62730
O927        O  0.11254588  0.90471414  0.27155473    -0.71150
O928        O  0.08893257  0.90506722  0.24991445    -0.70700
O929        O  0.13582710  0.84845213  0.23179933    -0.61950
O930        O  0.08853648  0.84845050  0.24961151    -0.74460
O931        O  0.13613768  0.90531947  0.23194756    -0.73240
Cu932      Cu  0.13681729  0.87651094  0.26320658     1.04560
Cu933      Cu  0.11148713  0.87683105  0.24007782     1.04330
C934        C  0.15553186  0.91415810  0.24007361     0.93060
C935        C  0.09265377  0.83920889  0.26309032     0.92200
C936        C  0.15508901  0.83951575  0.23991102     0.84350
C937        C  0.09327311  0.91376445  0.26351675     0.90620
N938        N  0.44713943  0.96063190  0.28582119    -0.27480
N939        N  0.46077747  0.95980539  0.27284020    -0.35340
C940        C  0.44732631  0.94507521  0.26250284     0.00860
C941        C  0.42409491  0.93595170  0.26926658     0.06880
C942        C  0.42442180  0.94631651  0.28405575    -0.06210
H943        H  0.45511803  0.93936416  0.25138959     0.07550
H944        H  0.41020667  0.94225451  0.29313592     0.08750
Cu945      Cu  0.00042201  0.97025965  0.27110575     0.44170
Cu946      Cu  0.46316951  0.97793098  0.30555025     0.41990
Cu947      Cu  0.03653995  0.97544408  0.30621208     0.43880
N948        N  0.03946433  0.95845504  0.27332164    -0.34870
N949        N  0.05259769  0.95848001  0.28650664    -0.29120
C950        C  0.07487481  0.94378463  0.28488740    -0.05220
C951        C  0.07541256  0.93395618  0.26998647     0.06990
C952        C  0.05277980  0.94379590  0.26300231     0.00790
H953        H  0.08859549  0.93911684  0.29411326     0.08440
H954        H  0.04526709  0.93871294  0.25169595     0.07520
N955        N  0.01352455  0.49656661  0.32187597    -0.36320
N956        N  0.48710524  0.49767642  0.32157340    -0.28500
C957        C  0.47896358  0.51599660  0.33182374    -0.03740
C958        C  0.00124386  0.52689962  0.33901937     0.04870
C959        C  0.02277554  0.51408392  0.33234928     0.02970
H960        H  0.45847676  0.52242969  0.33300478     0.08070
H961        H  0.04374629  0.51834108  0.33428151     0.06910
N962        N  0.19557185  0.79363735  0.21759121    -0.27480
N963        N  0.20950432  0.79540813  0.23045622    -0.35340
C964        C  0.19637446  0.81071372  0.24052489     0.00860
C965        C  0.17306866  0.81922882  0.23367260     0.06880
C966        C  0.17299966  0.80791136  0.21912879    -0.06210
H967        H  0.20442610  0.81719524  0.25146888     0.07550
H968        H  0.15861027  0.81123013  0.21004256     0.08750
Cu969      Cu  0.24911535  0.78524097  0.23207946     0.44170
Cu970      Cu  0.21116672  0.77497521  0.19837479     0.41990
Cu971      Cu  0.28484862  0.77788041  0.19702422     0.43880
N972        N  0.28825451  0.79703963  0.22946030    -0.34870
N973        N  0.30125360  0.79639275  0.21625895    -0.29120
C974        C  0.32373192  0.81123503  0.21759797    -0.05220
C975        C  0.32453244  0.82175851  0.23234421     0.06990
C976        C  0.30185906  0.81218905  0.23951180     0.00790
H977        H  0.33750264  0.81536812  0.20830475     0.08440
H978        H  0.29456860  0.81769611  0.25077200     0.07520
N979        N  0.26103410  0.75481116  0.18251357    -0.36320
N980        N  0.23462801  0.75352559  0.18318761    -0.28500
C981        C  0.22590535  0.73413382  0.17372592    -0.03740
C982        C  0.24776010  0.72279390  0.16656974     0.04870
C983        C  0.26969099  0.73636326  0.17250146     0.02970
H984        H  0.20529217  0.72762743  0.17298373     0.08070
H985        H  0.29053236  0.73228710  0.17024694     0.06910
N986        N  0.44495200  0.79414145  0.28390035    -0.27480
N987        N  0.45878425  0.79567612  0.27100471    -0.35340
C988        C  0.44596142  0.81146024  0.26101286     0.00860
C989        C  0.42295450  0.82049428  0.26793632     0.06880
C990        C  0.42274950  0.80899817  0.28243369    -0.06210
H991        H  0.45402731  0.81779854  0.25006021     0.07550
H992        H  0.40852681  0.81257075  0.29155117     0.08750
Cu993      Cu  0.99800467  0.78420541  0.26915310     0.44170
Cu994      Cu  0.46002006  0.77507256  0.30321506     0.41990
Cu995      Cu  0.03360173  0.77509959  0.30407455     0.43880
N996        N  0.03753211  0.79468231  0.27175897    -0.34870
N997        N  0.05055186  0.79340952  0.28495622    -0.29120
C998        C  0.07330640  0.80786185  0.28377423    -0.05220
C999        C  0.07428025  0.81879318  0.26913251     0.06990
C1000       C  0.05141168  0.80983842  0.26185949     0.00790
H1001       H  0.08707929  0.81160836  0.29314302     0.08440
H1002       H  0.04412609  0.81592862  0.25068855     0.07520
N1003       N  0.00933376  0.75345589  0.31902293    -0.36320
N1004       N  0.48285143  0.75340819  0.31872288    -0.28500
C1005       C  0.47368089  0.73490625  0.32864834    -0.03740
C1006       C  0.99538037  0.72285921  0.33549195     0.04870
C1007       C  0.01762441  0.73497918  0.32913378     0.02970
H1008       H  0.45285206  0.72949768  0.33005868     0.08070
H1009       H  0.03828925  0.72963521  0.33102044     0.06910
N1010       N  0.19611532  0.96097854  0.21789655    -0.27480
N1011       N  0.20977777  0.95954699  0.23087875    -0.35340
C1012       C  0.19668212  0.94382007  0.24084596     0.00860
C1013       C  0.17363315  0.93468042  0.23386309     0.06880
C1014       C  0.17370568  0.94605491  0.21931269    -0.06210
H1015       H  0.20452857  0.93769490  0.25188349     0.07550
H1016       H  0.15942035  0.94250178  0.21017552     0.08750
Cu1017     Cu  0.24899834  0.97125358  0.23318388     0.44170
Cu1018     Cu  0.21145078  0.98071795  0.19871342     0.41990
Cu1019     Cu  0.28524468  0.98256229  0.19917239     0.43880
N1020       N  0.28846738  0.96100198  0.23097307    -0.34870
N1021       N  0.30183163  0.96308413  0.21794947    -0.29120
C1022       C  0.32446525  0.94874118  0.21910395    -0.05220
C1023       C  0.32500415  0.93706723  0.23356765     0.06990
C1024       C  0.30198492  0.94544006  0.24075107     0.00790
H1025       H  0.33849343  0.94565292  0.20982795     0.08440
H1026       H  0.29438174  0.93873506  0.25174134     0.07520
N1027       N  0.26134697  0.50506722  0.18458543    -0.36320
N1028       N  0.23490558  0.50421797  0.18415729    -0.28500
C1029       C  0.22619364  0.52275734  0.17415477    -0.03740
C1030       C  0.24814405  0.53636110  0.16822970     0.04870
C1031       C  0.27002557  0.52426985  0.17501410     0.02970
H1032       H  0.20535268  0.52615848  0.17158784     0.08070
H1033       H  0.29082930  0.52976078  0.17358074     0.06910
C1034       C  0.00210441  0.62768091  0.37477341    -0.02680
O1035       O  0.47586367  0.78567402  0.00168877    -0.73130
O1036       O  0.03219836  0.73893138  0.02030864    -0.74120
O1037       O  0.03263934  0.78614574  0.00225778    -0.62730
O1038       O  0.47520654  0.73844739  0.01963376    -0.71150
O1039       O  0.47608112  0.71494863  0.99799704    -0.70700
O1040       O  0.03322182  0.76255993  0.98064758    -0.61950
O1041       O  0.03276225  0.71544881  0.99866470    -0.74460
O1042       O  0.47632665  0.76212375  0.98006670    -0.73240
Cu1043     Cu  0.00396107  0.76318219  0.01171443     1.04560
Cu1044     Cu  0.00463079  0.73790163  0.98861390     1.04330
C1045       C  0.46721049  0.78137278  0.98807063     0.93060
C1046       C  0.04131657  0.71967551  0.01231544     0.92200
C1047       C  0.04189712  0.78197550  0.98878099     0.84350
C1048       C  0.46662858  0.71906442  0.01142081     0.90620
O1049       O  0.47508113  0.98805924  0.98005741    -0.73130
O1050       O  0.03185678  0.53595371  0.99788921    -0.74120
O1051       O  0.03204136  0.98860161  0.98014108    -0.62730
O1052       O  0.47517594  0.53541986  0.99779687    -0.71150
O1053       O  0.47496429  0.51210274  0.01950516    -0.70700
O1054       O  0.03197085  0.96526334  0.00184277    -0.61950
O1055       O  0.03192569  0.51259485  0.01958181    -0.74460
O1056       O  0.47522944  0.96471682  0.00175328    -0.73240
Cu1057     Cu  0.00353492  0.51286748  0.98822871     1.04560
Cu1058     Cu  0.00352437  0.98780482  0.01141366     1.04330
C1059       C  0.46620316  0.96875938  0.98820526     0.93060
C1060       C  0.04083121  0.53189286  0.01144671     0.92200
C1061       C  0.04099155  0.96948729  0.98831469     0.84350
C1062       C  0.46611267  0.53125330  0.01131843     0.90620
N1063       N  0.41986326  0.57199757  0.03330321    -0.27480
N1064       N  0.42154915  0.58549618  0.02029330    -0.35340
C1065       C  0.43701454  0.57222012  0.01037522     0.00860
C1066       C  0.44573070  0.54926280  0.01743897     0.06880
C1067       C  0.43437035  0.54954427  0.03197475    -0.06210
H1068       H  0.44336582  0.57992696  0.99933981     0.07550
H1069       H  0.43771213  0.53541657  0.04116823     0.08750
Cu1070     Cu  0.41086021  0.62476108  0.01790764     0.44170
Cu1071     Cu  0.40047235  0.58758350  0.05237613     0.41990
Cu1072     Cu  0.40001219  0.66129394  0.05176749     0.43880
N1073       N  0.42181514  0.66415423  0.02003920    -0.34870
N1074       N  0.41981904  0.67763648  0.03301773    -0.29120
C1075       C  0.43437042  0.70029261  0.03182556    -0.05220
C1076       C  0.44610497  0.70073049  0.01738387     0.06990
C1077       C  0.43755510  0.67762077  0.01024801     0.00790
H1078       H  0.43750038  0.71444980  0.04105556     0.08440
H1079       H  0.44418061  0.66998622  0.99926902     0.07520
N1080       N  0.37667022  0.63758831  0.06611177    -0.36320
N1081       N  0.37698218  0.61119965  0.06654454    -0.28500
C1082       C  0.35788090  0.60261199  0.07628315    -0.03740
C1083       C  0.34453008  0.62459651  0.08203024     0.04870
C1084       C  0.35728687  0.64637463  0.07545154     0.02970
H1085       H  0.35393351  0.58184422  0.07880889     0.08070
H1086       H  0.35219312  0.66716546  0.07689340     0.06910
N1087       N  0.08667727  0.92888220  0.96595002    -0.27480
N1088       N  0.08582610  0.91558493  0.97905027    -0.35340
C1089       C  0.07074294  0.92888856  0.98916469     0.00860
C1090       C  0.06144429  0.95164441  0.98211674     0.06880
C1091       C  0.07206627  0.95122032  0.96740755    -0.06210
H1092       H  0.06494848  0.92127183  0.00032058     0.07550
H1093       H  0.06797445  0.96505368  0.95816720     0.08750
Cu1094     Cu  0.09690155  0.87638987  0.98125880     0.44170
Cu1095     Cu  0.10441585  0.91296017  0.94647743     0.41990
Cu1096     Cu  0.10483667  0.83962965  0.94669769     0.43880
N1097       N  0.08618220  0.83690054  0.97928693    -0.34870
N1098       N  0.08720645  0.82344078  0.96624792    -0.29120
C1099       C  0.07286085  0.80074335  0.96782037    -0.05220
C1100       C  0.06223396  0.80024014  0.98254055     0.06990
C1101       C  0.07124582  0.82336005  0.98946906     0.00790
H1102       H  0.06892418  0.78667596  0.95864319     0.08440
H1103       H  0.06534054  0.83100555  0.00058206     0.07520
N1104       N  0.12562450  0.86325914  0.93103103    -0.36320
N1105       N  0.12545622  0.88968286  0.93095673    -0.28500
C1106       C  0.14364693  0.89857251  0.92076197    -0.03740
C1107       C  0.15571407  0.87676440  0.91410220     0.04870
C1108       C  0.14393126  0.85472784  0.92087553     0.02970
H1109       H  0.14900708  0.91932404  0.91912125     0.08070
H1110       H  0.14956636  0.83410299  0.91933161     0.06910
N1111       N  0.08685773  0.57279151  0.03391535    -0.27480
N1112       N  0.08534754  0.58662600  0.02103639    -0.35340
C1113       C  0.06997843  0.57340705  0.01090253     0.00860
C1114       C  0.06118582  0.55011623  0.01772323     0.06880
C1115       C  0.07238044  0.55018353  0.03231703    -0.06210
H1116       H  0.06371022  0.58133706  0.99991518     0.07550
H1117       H  0.06885731  0.53582789  0.04138978     0.08750
Cu1118     Cu  0.09628497  0.62610358  0.01946759     0.44170
Cu1119     Cu  0.10549060  0.58851333  0.05323848     0.41990
Cu1120     Cu  0.10391182  0.66197791  0.05466616     0.43880
N1121       N  0.08540142  0.66528603  0.02198833    -0.34870
N1122       N  0.08603674  0.67835170  0.03518042    -0.29120
C1123       C  0.07160082  0.70084810  0.03366178    -0.05220
C1124       C  0.06138224  0.70159034  0.01881578     0.06990
C1125       C  0.07070842  0.67885249  0.01178646     0.00790
H1126       H  0.06745623  0.71465974  0.04290129     0.08440
H1127       H  0.06523963  0.67145854  0.00051616     0.07520
N1128       N  0.12598959  0.63805710  0.06959409    -0.36320
N1129       N  0.12683258  0.61171256  0.06882506    -0.28500
C1130       C  0.14579229  0.60282085  0.07847349    -0.03740
C1131       C  0.15734017  0.62446050  0.08591904     0.04870
C1132       C  0.14427030  0.64647787  0.07990740     0.02970
H1133       H  0.15202507  0.58224604  0.07905747     0.08070
H1134       H  0.14871657  0.66723931  0.08224642     0.06910
N1135       N  0.42010173  0.92750035  0.96592942    -0.27480
N1136       N  0.42166310  0.91390225  0.97889462    -0.35340
C1137       C  0.43703079  0.92731457  0.98894024     0.00860
C1138       C  0.44581263  0.95048455  0.98198929     0.06880
C1139       C  0.43458107  0.95015494  0.96739672    -0.06210
H1140       H  0.44333978  0.91956451  0.99996299     0.07550
H1141       H  0.43809812  0.96434934  0.95823978     0.08750
Cu1142     Cu  0.41106770  0.87437746  0.98078116     0.44170
Cu1143     Cu  0.40144871  0.91135798  0.94666358     0.41990
Cu1144     Cu  0.40351629  0.83791143  0.94587869     0.43880
N1145       N  0.42248870  0.83530276  0.97845768    -0.34870
N1146       N  0.42175539  0.82203586  0.96533700    -0.29120
C1147       C  0.43645286  0.79972621  0.96685539    -0.05220
C1148       C  0.44696683  0.79930184  0.98162704     0.06990
C1149       C  0.43753857  0.82203881  0.98862525     0.00790
H1150       H  0.44054496  0.78582595  0.95765230     0.08440
H1151       H  0.44312064  0.82962046  0.99983608     0.07520
N1152       N  0.38157553  0.86119694  0.93062152    -0.36320
N1153       N  0.38060698  0.88756243  0.93106952    -0.28500
C1154       C  0.36207804  0.89598746  0.92100250    -0.03740
C1155       C  0.35095853  0.87399438  0.91367146     0.04870
C1156       C  0.36377901  0.85228156  0.92016745     0.02970
H1157       H  0.35588444  0.91652651  0.91994420     0.08070
H1158       H  0.35958122  0.83141738  0.91799402     0.06910
C1159       C  0.25417150  0.62874278  0.12564101    -0.02680
C1160       C  0.25252717  0.87349891  0.87558670    -0.02680
C1161       C  0.30854971  0.85273283  0.90478393    -0.09350
C1162       C  0.32726967  0.87346160  0.90334144     0.06850
C1163       C  0.32266573  0.89331842  0.89227415    -0.03110
C1164       C  0.29906777  0.89302010  0.88365104    -0.07560
C1165       C  0.27895723  0.87311132  0.88549694     0.05960
C1166       C  0.28505093  0.85201793  0.89600995    -0.02590
Br1167     Br  0.26239595  0.82164515  0.90003588    -0.02280
H1168       H  0.31191466  0.83703319  0.91310110     0.09880
H1169       H  0.29747771  0.90826541  0.87497736     0.07890
Br1170     Br  0.34879057  0.92020398  0.88723290    -0.02710
C1171       C  0.20006914  0.64551578  0.09426519    -0.09350
C1172       C  0.18158227  0.62463925  0.09584054     0.06850
C1173       C  0.18720380  0.60423709  0.10643429    -0.03110
C1174       C  0.21080017  0.60507592  0.11507722    -0.07560
C1175       C  0.22881112  0.62714611  0.11465708     0.05960
C1176       C  0.22330791  0.64692858  0.10321519    -0.02590
Br1177     Br  0.24525346  0.67766427  0.09909937    -0.02280
H1178       H  0.19653183  0.66101373  0.08584499     0.09880
H1179       H  0.21446984  0.58780596  0.12209770     0.07890
Br1180     Br  0.16270673  0.57550472  0.11075513    -0.02710
C1181       C  0.22817289  0.87680666  0.90204181    -0.09350
C1182       C  0.22661379  0.87509644  0.88577693     0.06850
C1183       C  0.20026928  0.87595457  0.87921712    -0.03110
C1184       C  0.17762181  0.87658315  0.88864502    -0.07560
C1185       C  0.17996781  0.87696004  0.90459269     0.05960
C1186       C  0.20540626  0.87744416  0.91129381    -0.02590
Br1187     Br  0.21008860  0.87915629  0.93316706    -0.02280
H1188       H  0.24707216  0.87833828  0.90793625     0.09880
H1189       H  0.15789905  0.87653669  0.88346620     0.07890
Br1190     Br  0.19235573  0.87475602  0.85758098    -0.02710
C1191       C  0.32059483  0.64662723  0.10332477    -0.09350
C1192       C  0.32164267  0.62553395  0.09284929     0.06850
C1193       C  0.30019452  0.60726261  0.09241006    -0.03110
C1194       C  0.27934559  0.60944138  0.10301949    -0.07560
C1195       C  0.27860359  0.62974380  0.11441595     0.05960
C1196       C  0.29926778  0.64979983  0.11353448    -0.02590
Br1197     Br  0.30029334  0.68457052  0.12304169    -0.02280
H1198       H  0.33641188  0.66151299  0.10325589     0.09880
H1199       H  0.26372786  0.59438118  0.10263660     0.07890
Br1200     Br  0.29704809  0.57958426  0.07725842    -0.02710
C1201       C  0.27080452  0.56118811  0.14729398    -0.09350
C1202       C  0.24907722  0.55926162  0.15734062     0.06850
C1203       C  0.23044605  0.58015036  0.15749564    -0.03110
C1204       C  0.23336837  0.60159510  0.14734952    -0.07560
C1205       C  0.25470086  0.60363233  0.13662417     0.05960
C1206       C  0.27458009  0.58304206  0.13747774    -0.02590
Br1207     Br  0.30995363  0.58285045  0.12861866    -0.02280
H1208       H  0.28580455  0.54570014  0.14746694     0.09880
H1209       H  0.21828695  0.61698292  0.14768312     0.07890
Br1210     Br  0.20161583  0.58223094  0.17196907    -0.02710
C1211       C  0.49868232  0.65096356  0.34813988    -0.09350
C1212       C  0.99966886  0.65302487  0.36439491     0.06850
C1213       C  0.99623771  0.67925004  0.37072799    -0.03110
C1214       C  0.99413497  0.70150805  0.36108353    -0.07560
C1215       C  0.99515397  0.69884142  0.34516262     0.05960
C1216       C  0.49698138  0.67337927  0.33867934    -0.02590
Br1217     Br  0.49707713  0.66819332  0.31682945    -0.02280
H1218       H  0.49867071  0.63194486  0.34240235     0.09880
H1219       H  0.99261236  0.72124703  0.36608224     0.07890
Br1220     Br  0.99751980  0.68786830  0.39226999    -0.02710
C1221       C  0.26856997  0.68015397  0.15866154    -0.09350
C1222       C  0.24819142  0.69879367  0.15662784     0.06850
C1223       C  0.22875545  0.69390500  0.14529568    -0.03110
C1224       C  0.23029703  0.67107093  0.13616466    -0.07560
C1225       C  0.25229367  0.65331855  0.13682980     0.05960
C1226       C  0.27075812  0.65767818  0.14919149    -0.02590
Br1227     Br  0.30132757  0.63597761  0.15350944    -0.02280
H1228       H  0.28327701  0.68323438  0.16765468     0.09880
H1229       H  0.21372928  0.66794639  0.12848168     0.07890
Br1230     Br  0.20055437  0.71849026  0.14065924    -0.02710
C1231       C  0.02246204  0.56991713  0.34658538    -0.09350
C1232       C  0.00222040  0.55098850  0.34893434     0.06850
C1233       C  0.48337936  0.55568362  0.36054257    -0.03110
C1234       C  0.48402288  0.57967288  0.36876003    -0.07560
C1235       C  0.00267870  0.60050046  0.36550487     0.05960
C1236       C  0.02333628  0.59390277  0.35481828    -0.02590
Br1237     Br  0.05381018  0.61584072  0.35018791    -0.02280
H1238       H  0.03768854  0.56625999  0.33801377     0.09880
H1239       H  0.46981045  0.58123686  0.37801180     0.07890
Br1240     Br  0.45742503  0.52929992  0.36660819    -0.02710
C1241       C  0.47808199  0.63024410  0.40150864    -0.09350
C1242       C  0.47633745  0.62859733  0.38522526     0.06850
C1243       C  0.44986647  0.62854487  0.37881704    -0.03110
C1244       C  0.42733428  0.62912508  0.38835686    -0.07560
C1245       C  0.42988560  0.63012606  0.40429671     0.05960
C1246       C  0.45542813  0.63084648  0.41086333    -0.02590
Br1247     Br  0.46042862  0.63294223  0.43270524    -0.02280
H1248       H  0.49697275  0.63231930  0.40735377     0.09880
H1249       H  0.40754407  0.62857581  0.38327137     0.07890
Br1250     Br  0.44180465  0.62614375  0.35723125    -0.02710
C1251       C  0.07187342  0.64348122  0.39445626    -0.09350
C1252       C  0.07342829  0.62243890  0.40494656     0.06850
C1253       C  0.05318829  0.60282522  0.40474538    -0.03110
C1254       C  0.03179998  0.60510202  0.39449899    -0.07560
C1255       C  0.02861584  0.62730467  0.38455203     0.05960
C1256       C  0.05053172  0.64606932  0.38413690    -0.02590
Br1257     Br  0.05700779  0.67448678  0.36958661    -0.02280
H1258       H  0.08797991  0.65804865  0.39409343     0.09880
H1259       H  0.01638900  0.58984416  0.39495944     0.07890
Br1260     Br  0.05149159  0.57380073  0.41910827    -0.02710
C1261       C  0.02880188  0.89368650  0.60373036    -0.09350
C1262       C  0.02743518  0.87293785  0.61483079     0.06850
C1263       C  0.04828338  0.85331106  0.61406025    -0.03110
C1264       C  0.06982794  0.85690538  0.60399440    -0.07560
C1265       C  0.07117681  0.87815787  0.59362618     0.05960
C1266       C  0.05001534  0.89648237  0.59338407    -0.02590
Br1267     Br  0.04730808  0.92463191  0.57852854    -0.02280
H1268       H  0.01304958  0.90837779  0.60322635     0.09880
H1269       H  0.08554251  0.84213522  0.60389690     0.07890
Br1270     Br  0.04936433  0.81848773  0.62351765    -0.02710
C1271       C  0.45919626  0.89556722  0.61485910    -0.09350
C1272       C  0.47732707  0.87384043  0.61466203     0.06850
C1273       C  0.47245686  0.85407008  0.60308112    -0.03110
C1274       C  0.44963762  0.85518164  0.59375775    -0.07560
C1275       C  0.43111064  0.87582872  0.59505711     0.05960
C1276       C  0.43607529  0.89612549  0.60585035    -0.02590
Br1277     Br  0.41124775  0.92434364  0.60994814    -0.02280
H1278       H  0.46231166  0.91276769  0.62205395     0.09880
H1279       H  0.44656930  0.83977516  0.58518837     0.07890
Br1280     Br  0.99510748  0.82418017  0.59891972    -0.02710
C1281       C  0.24995011  0.89704010  0.84883817    -0.09350
C1282       C  0.25123676  0.89906230  0.86510380     0.06850
C1283       C  0.25007078  0.92552905  0.87137665    -0.03110
C1284       C  0.24930321  0.94784735  0.86170998    -0.07560
C1285       C  0.24917752  0.94505968  0.84578290     0.05960
C1286       C  0.24922312  0.91948518  0.83934571    -0.02590
Br1287     Br  0.24801600  0.91417382  0.81751345    -0.02280
H1288       H  0.24872046  0.87801569  0.84311828     0.09880
H1289       H  0.24902717  0.96766870  0.86668756     0.07890
Br1290     Br  0.25085131  0.93404618  0.89293466    -0.02710
C1291       C  0.27372454  0.81687966  0.84702320    -0.09350
C1292       C  0.25274062  0.79841472  0.84838533     0.06850
C1293       C  0.23273059  0.80323356  0.85932772    -0.03110
C1294       C  0.23304654  0.82687852  0.86783059    -0.07560
C1295       C  0.25310077  0.84684248  0.86596193     0.05960
C1296       C  0.27445464  0.84042708  0.85568899    -0.02590
Br1297     Br  0.30515728  0.86274540  0.85181300    -0.02280
H1298       H  0.28958033  0.81331221  0.83882823     0.09880
H1299       H  0.21764961  0.82865032  0.87640862     0.07890
Br1300     Br  0.20553821  0.77739111  0.86432342    -0.02710
C1301       C  0.48230677  0.92594492  0.65704458    -0.09350
C1302       C  0.00199650  0.94569937  0.65541855     0.06850
C1303       C  0.02206202  0.94200416  0.64433135    -0.03110
C1304       C  0.02249412  0.91873142  0.63547404    -0.07560
C1305       C  0.00234532  0.89868645  0.63653527     0.05960
C1306       C  0.48216933  0.90286764  0.64796448    -0.02590
Br1307     Br  0.45228650  0.87929492  0.65161382    -0.02280
H1308       H  0.46678926  0.92835325  0.66559544     0.09880
H1309       H  0.03947828  0.91668506  0.62801261     0.07890
Br1310     Br  0.04866650  0.46869339  0.63977982    -0.02710
C1311       C  0.48147225  0.82896178  0.63608879    -0.09350
C1312       C  0.00172139  0.84886081  0.63711022     0.06850
C1313       C  0.02027334  0.84632414  0.64957907    -0.03110
C1314       C  0.01896168  0.82431806  0.65948791    -0.07560
C1315       C  0.99964659  0.80423041  0.65763140     0.05960
C1316       C  0.48079213  0.80673361  0.64574536    -0.02590
Br1317     Br  0.45456778  0.77965873  0.64117354    -0.02280
H1318       H  0.46545520  0.83020832  0.62788329     0.09880
H1319       H  0.03351828  0.82274978  0.66867098     0.07890
Br1320     Br  0.05015597  0.86994006  0.65318978    -0.02710
O1321       O  0.66036132  0.09577872  0.74936108    -0.73130
O1322       O  0.61306241  0.15265846  0.73181960    -0.74120
O1323       O  0.66073511  0.15243702  0.74944391    -0.62730
O1324       O  0.61274317  0.09574100  0.73173102    -0.71150
O1325       O  0.58956228  0.09567196  0.75348719    -0.70700
O1326       O  0.63755859  0.15241008  0.77120074    -0.61950
O1327       O  0.58993462  0.15229522  0.75359216    -0.74460
O1328       O  0.63718187  0.09552692  0.77111666    -0.73240
Cu1329     Cu  0.63758272  0.12415895  0.73984195     1.04560
Cu1330     Cu  0.61270478  0.12397466  0.76309105     1.04330
C1331       C  0.65627225  0.08666224  0.76288567     0.93060
C1332       C  0.59396942  0.16146208  0.74007783     0.92200
C1333       C  0.65677616  0.16138089  0.76300506     0.84350
C1334       C  0.59354685  0.08673213  0.73992715     0.90620
O1335       O  0.91091223  0.15103267  0.75368936    -0.73130
O1336       O  0.86319795  0.09364854  0.77069717    -0.74120
O1337       O  0.91055765  0.09441486  0.75288384    -0.62730
O1338       O  0.86352739  0.15043829  0.77142797    -0.71150
O1339       O  0.84010868  0.15111205  0.74972457    -0.70700
O1340       O  0.88717288  0.09505703  0.73117175    -0.61950
O1341       O  0.83973237  0.09446921  0.74901118    -0.74460
O1342       O  0.88751833  0.15199729  0.73198020    -0.73240
Cu1343     Cu  0.88792016  0.12234540  0.76290774     1.04560
Cu1344     Cu  0.86276621  0.12318003  0.73972447     1.04330
C1345       C  0.90678403  0.16062925  0.74029461     0.93060
C1346       C  0.84383492  0.08504951  0.76245967     0.92200
C1347       C  0.90637594  0.08587876  0.73923184     0.84350
C1348       C  0.84432446  0.15962822  0.76337327     0.90620
N1349       N  0.94753400  0.20834802  0.71898787    -0.27480
N1350       N  0.96115883  0.20629385  0.73193820    -0.35340
C1351       C  0.94794284  0.19019102  0.74164861     0.00860
C1352       C  0.92488468  0.18145982  0.73447660     0.06880
C1353       C  0.92505991  0.19347963  0.72011863    -0.06210
H1354       H  0.95575971  0.18343616  0.75256925     0.07550
H1355       H  0.91089280  0.19030022  0.71087681     0.08750
Cu1356     Cu  0.50057462  0.21746123  0.73407889     0.44170
Cu1357     Cu  0.96343839  0.22828265  0.70017609     0.41990
Cu1358     Cu  0.53714484  0.22788494  0.69948053     0.43880
N1359       N  0.53980981  0.20653775  0.73150756    -0.34870
N1360       N  0.55311026  0.20827204  0.71843207    -0.29120
C1361       C  0.57548921  0.19353882  0.71958675    -0.05220
C1362       C  0.57592469  0.18197793  0.73407838     0.06990
C1363       C  0.55313359  0.19082430  0.74129362     0.00790
H1364       H  0.58944287  0.19018569  0.71030502     0.08440
H1365       H  0.54554813  0.18442028  0.75234690     0.07520
N1366       N  0.51331780  0.25039044  0.68481089    -0.36320
N1367       N  0.98686749  0.25059902  0.68518841    -0.28500
C1368       C  0.97793568  0.26917572  0.67534092    -0.03740
C1369       C  0.49969612  0.28110705  0.66824684     0.04870
C1370       C  0.52180132  0.26880024  0.67463863     0.02970
H1371       H  0.95714883  0.27457345  0.67413058     0.08070
H1372       H  0.54258796  0.27349180  0.67242515     0.06910
N1373       N  0.94721683  0.04019070  0.71674094    -0.27480
N1374       N  0.96047975  0.04120823  0.72987983    -0.35340
C1375       C  0.94715769  0.05638884  0.73992628     0.00860
C1376       C  0.92438755  0.06566311  0.73284805     0.06880
C1377       C  0.92484184  0.05489284  0.71813866    -0.06210
H1378       H  0.95473813  0.06216162  0.75110879     0.07550
H1379       H  0.91089176  0.05876612  0.70890242     0.08750
Cu1380     Cu  0.49969559  0.03020788  0.73243807     0.44170
Cu1381     Cu  0.96322445  0.02145858  0.69743327     0.41990
Cu1382     Cu  0.53684258  0.02135831  0.69850894     0.43880
N1383       N  0.53908537  0.04160326  0.73066545    -0.34870
N1384       N  0.55272914  0.04024851  0.71771381    -0.29120
C1385       C  0.57521440  0.05501313  0.71916844    -0.05220
C1386       C  0.57538643  0.06624056  0.73374194     0.06990
C1387       C  0.55229618  0.05716180  0.74070093     0.00790
H1388       H  0.58940184  0.05867571  0.71001920     0.08440
H1389       H  0.54446856  0.06332790  0.75172372     0.07520
N1390       N  0.51376432  0.49961674  0.68302090    -0.36320
N1391       N  0.98732395  0.49969504  0.68245101    -0.28500
C1392       C  0.97916433  0.48143576  0.67206367    -0.03740
C1393       C  0.50147885  0.46931943  0.66574793     0.04870
C1394       C  0.52299201  0.48127156  0.67313097     0.02970
H1395       H  0.95844759  0.47650635  0.66977012     0.08070
H1396       H  0.54380128  0.47581763  0.67222614     0.06910
N1397       N  0.69810643  0.20732444  0.78528669    -0.27480
N1398       N  0.71172799  0.20583681  0.77232653    -0.35340
C1399       C  0.69826119  0.19057262  0.76225549     0.00860
C1400       C  0.67504939  0.18177794  0.76919384     0.06880
C1401       C  0.67539804  0.19290451  0.78379429    -0.06210
H1402       H  0.70603469  0.18428572  0.75124256     0.07550
H1403       H  0.66121513  0.18930156  0.79295341     0.08750
Cu1404     Cu  0.75140583  0.21619707  0.77051500     0.44170
Cu1405     Cu  0.71430580  0.22556389  0.80464534     0.41990
Cu1406     Cu  0.78776239  0.22276353  0.80561445     0.43880
N1407       N  0.79046024  0.20446303  0.77292733    -0.34870
N1408       N  0.80364285  0.20489728  0.78609856    -0.29120
C1409       C  0.82590714  0.19011189  0.78460455    -0.05220
C1410       C  0.82639179  0.17983125  0.76979955     0.06990
C1411       C  0.80374372  0.18949654  0.76274775     0.00790
H1412       H  0.83971590  0.18579492  0.79384436     0.08440
H1413       H  0.79622311  0.18414442  0.75148379     0.07520
N1414       N  0.76460836  0.24445590  0.82098438    -0.36320
N1415       N  0.73821006  0.24572698  0.82046168    -0.28500
C1416       C  0.72990597  0.26412331  0.83059950    -0.03740
C1417       C  0.75202018  0.27483157  0.83805006     0.04870
C1418       C  0.77367501  0.26190879  0.83155910     0.02970
H1419       H  0.70939928  0.27056364  0.83160242     0.08070
H1420       H  0.79461396  0.26586519  0.83378541     0.06910
N1421       N  0.69679872  0.04010610  0.78486749    -0.27480
N1422       N  0.71013382  0.04138309  0.77178881    -0.35340
C1423       C  0.69693952  0.05694109  0.76185100     0.00860
C1424       C  0.67419610  0.06612828  0.76897930     0.06880
C1425       C  0.67453042  0.05494399  0.78356514    -0.06210
H1426       H  0.70458826  0.06301414  0.75075094     0.07550
H1427       H  0.66061733  0.05867839  0.79281761     0.08750
Cu1428     Cu  0.74926688  0.02996992  0.76942307     0.44170
Cu1429     Cu  0.71261136  0.02117666  0.80407608     0.41990
Cu1430     Cu  0.78615156  0.02073483  0.80384177     0.43880
N1431       N  0.78885407  0.04052855  0.77149930    -0.34870
N1432       N  0.80235555  0.03907668  0.78452785    -0.29120
C1433       C  0.82507777  0.05348248  0.78312259    -0.05220
C1434       C  0.82554999  0.06458311  0.76851865     0.06990
C1435       C  0.80239424  0.05579121  0.76148460     0.00790
H1436       H  0.83918779  0.05709960  0.79234157     0.08440
H1437       H  0.79471554  0.06205134  0.75043345     0.07520
N1438       N  0.76252091  0.49935268  0.81923173    -0.36320
N1439       N  0.73603623  0.49945174  0.81932031    -0.28500
C1440       C  0.72724091  0.48109713  0.82944711    -0.03740
C1441       C  0.74918235  0.46901117  0.83602961     0.04870
C1442       C  0.77118411  0.48095016  0.82929213     0.02970
H1443       H  0.70645759  0.47581227  0.83118852     0.08070
H1444       H  0.79190000  0.47552458  0.83088475     0.06910
C1445       C  0.50237878  0.37317743  0.62582463    -0.02680
O1446       O  0.72666974  0.46602118  0.49756146    -0.73130
O1447       O  0.78348676  0.01375015  0.47968606    -0.74120
O1448       O  0.78339499  0.46615932  0.49722130    -0.62730
O1449       O  0.72656135  0.01346580  0.47994194    -0.71150
O1450       O  0.72702936  0.03665567  0.50170214    -0.70700
O1451       O  0.78400116  0.48921595  0.51902638    -0.61950
O1452       O  0.78375760  0.03680284  0.50149250    -0.74460
O1453       O  0.72696838  0.48920032  0.51932294    -0.73240
Cu1454     Cu  0.75502221  0.48899007  0.48786130     1.04560
Cu1455     Cu  0.75547422  0.01381974  0.51113583     1.04330
C1456       C  0.71778820  0.47008378  0.51113104     0.93060
C1457       C  0.79252871  0.03293106  0.48788973     0.92200
C1458       C  0.79266691  0.47012538  0.51072771     0.84350
C1459       C  0.71779304  0.03255109  0.48818950     0.90620
O1460       O  0.72233019  0.26370279  0.51975885    -0.73130
O1461       O  0.77898769  0.21613779  0.50186851    -0.74120
O1462       O  0.77938506  0.26363286  0.51959447    -0.62730
O1463       O  0.72218440  0.21600989  0.50217934    -0.71150
O1464       O  0.72173312  0.23905937  0.48038462    -0.70700
O1465       O  0.77924829  0.28675486  0.49782146    -0.61950
O1466       O  0.77876217  0.23932333  0.48012108    -0.74460
O1467       O  0.72250845  0.28670123  0.49794737    -0.73240
Cu1468     Cu  0.75071779  0.23900913  0.51159613     1.04560
Cu1469     Cu  0.75054568  0.26380919  0.48832854     1.04330
C1470       C  0.71354652  0.28284540  0.51151962     0.93060
C1471       C  0.78782384  0.22023985  0.48827202     0.92200
C1472       C  0.78837871  0.28274828  0.51135900     0.84350
C1473       C  0.71294308  0.21988200  0.48866830     0.90620
N1474       N  0.67087055  0.07264301  0.46623513    -0.27480
N1475       N  0.67193750  0.08591803  0.47934720    -0.35340
C1476       C  0.68771006  0.07293368  0.48927531     0.00860
C1477       C  0.69719356  0.05038425  0.48210612     0.06880
C1478       C  0.68600892  0.05061835  0.46751174    -0.06210
H1479       H  0.69359087  0.08053765  0.50043086     0.07550
H1480       H  0.68984993  0.03675275  0.45825403     0.08750
Cu1481     Cu  0.65947411  0.12462869  0.48189791     0.44170
Cu1482     Cu  0.65148081  0.08791059  0.44705022     0.41990
Cu1483     Cu  0.64758246  0.16126581  0.44794532     0.43880
N1484       N  0.66888907  0.16442148  0.47989549    -0.34870
N1485       N  0.66665772  0.17792562  0.46693203    -0.29120
C1486       C  0.68079980  0.20083642  0.46820774    -0.05220
C1487       C  0.69248596  0.20143622  0.48268326     0.06990
C1488       C  0.68431261  0.17815904  0.48975713     0.00790
H1489       H  0.68381791  0.21501375  0.45898518     0.08440
H1490       H  0.69118044  0.17052960  0.50069707     0.07520
N1491       N  0.62622085  0.13684484  0.43290502    -0.36320
N1492       N  0.62791936  0.11052943  0.43236265    -0.28500
C1493       C  0.61003654  0.10113084  0.42209317    -0.03740
C1494       C  0.59594967  0.12246862  0.41610030     0.04870
C1495       C  0.60708650  0.14476797  0.42309860     0.02970
H1496       H  0.60741732  0.08023236  0.41939483     0.08070
H1497       H  0.60097818  0.16527245  0.42162000     0.06910
N1498       N  0.83722732  0.07524813  0.46548532    -0.27480
N1499       N  0.83616126  0.08839499  0.47862871    -0.35340
C1500       C  0.82153225  0.07442295  0.48874912     0.00860
C1501       C  0.81270309  0.05137578  0.48166827     0.06880
C1502       C  0.82316405  0.05233890  0.46691904    -0.06210
H1503       H  0.81558266  0.08177580  0.49992042     0.07550
H1504       H  0.81927371  0.03845991  0.45764136     0.08750
Cu1505     Cu  0.84586476  0.12809031  0.48087011     0.44170
Cu1506     Cu  0.85453347  0.09213020  0.44605617     0.41990
Cu1507     Cu  0.85378742  0.16550489  0.44649892     0.43880
N1508       N  0.83351378  0.16693213  0.47882637    -0.34870
N1509       N  0.83455503  0.18056928  0.46584607    -0.29120
C1510       C  0.81943183  0.20258085  0.46735228    -0.05220
C1511       C  0.80831665  0.20244634  0.48196682     0.06990
C1512       C  0.81782357  0.17966446  0.48889672     0.00790
H1513       H  0.81555442  0.21671428  0.45823301     0.08440
H1514       H  0.81199968  0.17174498  0.49997732     0.07520
N1515       N  0.87547797  0.14263080  0.43092397    -0.36320
N1516       N  0.87549931  0.11620233  0.43071871    -0.28500
C1517       C  0.89376877  0.10783910  0.42049422    -0.03740
C1518       C  0.90575377  0.12996309  0.41395028     0.04870
C1519       C  0.89381488  0.15167944  0.42083746     0.02970
H1520       H  0.89918920  0.08721175  0.41871743     0.08070
H1521       H  0.89922878  0.17244931  0.41933843     0.06910
N1522       N  0.67018563  0.43007277  0.53309906    -0.27480
N1523       N  0.67170244  0.41638146  0.52015231    -0.35340
C1524       C  0.68778857  0.42924764  0.51027593     0.00860
C1525       C  0.69708911  0.45215029  0.51729517     0.06880
C1526       C  0.68542872  0.45225338  0.53176213    -0.06210
H1527       H  0.69400432  0.42134670  0.49927963     0.07550
H1528       H  0.68893529  0.46652185  0.54089159     0.08750
Cu1529     Cu  0.65958680  0.37735625  0.51784001     0.44170
Cu1530     Cu  0.64984224  0.41508025  0.55212889     0.41990
Cu1531     Cu  0.64787208  0.34139234  0.55187469     0.43880
N1532       N  0.66964933  0.33791312  0.52013731    -0.34870
N1533       N  0.66752144  0.32463209  0.53318558    -0.29120
C1534       C  0.68175048  0.30193435  0.53205171    -0.05220
C1535       C  0.69336935  0.30126125  0.51756772     0.06990
C1536       C  0.68509007  0.32428178  0.51036595     0.00790
H1537       H  0.68471711  0.28788556  0.54132807     0.08440
H1538       H  0.69174524  0.33176796  0.49933929     0.07520
N1539       N  0.62514112  0.36548357  0.56626996    -0.36320
N1540       N  0.62598309  0.39187809  0.56657236    -0.28500
C1541       C  0.60738962  0.40072058  0.57650238    -0.03260
C1542       C  0.59380795  0.37890371  0.58254871     0.04870
C1543       C  0.60590707  0.35696415  0.57588514     0.02970
H1544       H  0.60399779  0.42154743  0.57899037     0.08070
H1545       H  0.60048037  0.33622114  0.57749336     0.06910
N1546       N  0.83871846  0.42890865  0.53254874    -0.27480
N1547       N  0.83666244  0.41531525  0.51959553    -0.35340
C1548       C  0.82130538  0.42877759  0.50967277     0.00860
C1549       C  0.81304784  0.45194714  0.51671666     0.06880
C1550       C  0.82458237  0.45158390  0.53121686    -0.06210
H1551       H  0.81455928  0.42102391  0.49871261     0.07550
H1552       H  0.82143714  0.46572370  0.54042632     0.08750
Cu1553     Cu  0.84637125  0.37570271  0.51771574     0.44170
Cu1554     Cu  0.85732006  0.41270904  0.55165924     0.41990
Cu1555     Cu  0.85428304  0.33935805  0.55273269     0.43880
N1556       N  0.83427230  0.33671362  0.52029848    -0.34870
N1557       N  0.83523351  0.32353049  0.53343867    -0.29120
C1558       C  0.82011517  0.30126145  0.53212972    -0.05220
C1559       C  0.80907507  0.30077370  0.51748698     0.06990
C1560       C  0.81863510  0.32342785  0.51033043     0.00790
H1561       H  0.81612044  0.28742469  0.54140392     0.08440
H1562       H  0.81281012  0.33092995  0.49916298     0.07520
N1563       N  0.87671581  0.36283259  0.56782165    -0.36320
N1564       N  0.87803894  0.38917908  0.56718772    -0.28500
C1565       C  0.89676487  0.39787264  0.57711092    -0.03740
C1566       C  0.90759904  0.37609369  0.58460833     0.04870
C1567       C  0.89445424  0.35419204  0.57831471     0.02970
H1568       H  0.90323037  0.41844225  0.57794319     0.08070
H1569       H  0.89836013  0.33339117  0.58067667     0.06910
O1570       O  0.86244458  0.40808658  0.23124166    -0.73130
O1571       O  0.90954863  0.35064590  0.24844420    -0.74120
O1572       O  0.86207896  0.35118066  0.23059723    -0.62730
O1573       O  0.90996328  0.40733725  0.24909735    -0.71150
O1574       O  0.88648588  0.40670158  0.27074560    -0.70700
O1575       O  0.83875442  0.35060882  0.25230108    -0.61950
O1576       O  0.88606043  0.34991524  0.27008894    -0.74460
O1577       O  0.83909181  0.40713829  0.25292938    -0.73240
Cu1578     Cu  0.88689064  0.37934761  0.23909579     1.04560
Cu1579     Cu  0.86174506  0.37857566  0.26224722     1.04330
C1580       C  0.84321259  0.41661147  0.23949601     0.93060
C1581       C  0.90523844  0.34120663  0.26187419     0.92200
C1582       C  0.84279765  0.34201965  0.23867492     0.84350
C1583       C  0.90584917  0.41585497  0.26273926     0.90620
O1584       O  0.65977703  0.40502428  0.25358026    -0.73130
O1585       O  0.61206147  0.34792363  0.27128296    -0.74120
O1586       O  0.65940364  0.34841519  0.25345941    -0.62730
O1587       O  0.61255978  0.40472178  0.27155466    -0.71150
O1588       O  0.58894671  0.40507513  0.24991429    -0.70700
O1589       O  0.63583797  0.34845717  0.23179987    -0.61950
O1590       O  0.58854760  0.34845838  0.24961222    -0.74460
O1591       O  0.63615192  0.40532432  0.23194754    -0.73240
Cu1592     Cu  0.63682991  0.37651697  0.26320684     1.04560
Cu1593     Cu  0.61149971  0.37683752  0.24007810     1.04330
C1594       C  0.65554657  0.41416215  0.24007352     0.93060
C1595       C  0.59266476  0.33921684  0.26309107     0.92200
C1596       C  0.65509956  0.33952010  0.23991153     0.84350
C1597       C  0.59328746  0.41377263  0.26351649     0.90620
N1598       N  0.94715196  0.46062498  0.28582179    -0.27480
N1599       N  0.96078987  0.45979972  0.27284073    -0.35340
C1600       C  0.94733963  0.44506875  0.26250333     0.00860
C1601       C  0.92410886  0.43594365  0.26926708     0.06880
C1602       C  0.92443526  0.44630812  0.28405634    -0.06210
H1603       H  0.95513122  0.43935915  0.25138980     0.07550
H1604       H  0.91022012  0.44224557  0.29313642     0.08750
Cu1605     Cu  0.50043291  0.47025972  0.27110584     0.44170
Cu1606     Cu  0.96318052  0.47792611  0.30555071     0.41990
Cu1607     Cu  0.53655140  0.47544877  0.30621178     0.43880
N1608       N  0.53947714  0.45846103  0.27332122    -0.34870
N1609       N  0.55261077  0.45848714  0.28650613    -0.29120
C1610       C  0.57488899  0.44379340  0.28488680    -0.05220
C1611       C  0.57542717  0.43396487  0.26998590     0.06990
C1612       C  0.55279361  0.44380296  0.26300184     0.00790
H1613       H  0.58860975  0.43912609  0.29411270     0.08440
H1614       H  0.54528065  0.43871866  0.25169574     0.07520
N1615       N  0.51351535  0.99656500  0.32187605    -0.36320
N1616       N  0.98709623  0.99767812  0.32157320    -0.28500
C1617       C  0.97895653  0.01599921  0.33182351    -0.03740
C1618       C  0.50123788  0.02689939  0.33901944     0.04870
C1619       C  0.52276818  0.01408107  0.33234953     0.02970
H1620       H  0.95847049  0.02243483  0.33300435     0.08070
H1621       H  0.54373937  0.01833558  0.33428203     0.06910
N1622       N  0.69557942  0.29363969  0.21759134    -0.27480
N1623       N  0.70951252  0.29540996  0.23045614    -0.35340
C1624       C  0.69638376  0.31071617  0.24052499     0.00860
C1625       C  0.67307802  0.31923219  0.23367302     0.06880
C1626       C  0.67300792  0.30791466  0.21912923    -0.06210
H1627       H  0.70443618  0.31719748  0.25146883     0.07550
H1628       H  0.65861831  0.31123405  0.21004319     0.08750
Cu1629     Cu  0.74912320  0.28524131  0.23207875     0.44170
Cu1630     Cu  0.71117267  0.27497694  0.19837464     0.41990
Cu1631     Cu  0.78485468  0.27787950  0.19702307     0.43880
N1632       N  0.78826258  0.29703883  0.22945902    -0.34870
N1633       N  0.80126114  0.29639164  0.21625751    -0.29120
C1634       C  0.82374004  0.31123314  0.21759631    -0.05220
C1635       C  0.82454150  0.32175643  0.23234260     0.06990
C1636       C  0.80186803  0.31218766  0.23951041     0.00790
H1637       H  0.83751066  0.31536573  0.20830297     0.08440
H1638       H  0.79457824  0.31769469  0.25077076     0.07520
N1639       N  0.76103870  0.25481068  0.18251291    -0.36320
N1640       N  0.73463257  0.25352621  0.18318720    -0.28500
C1641       C  0.72590883  0.23413466  0.17372567    -0.03740
C1642       C  0.74776291  0.22279365  0.16656938     0.04870
C1643       C  0.76969452  0.23636219  0.17250083     0.02970
H1644       H  0.70529536  0.22762916  0.17298365     0.08070
H1645       H  0.79053565  0.23228510  0.17024613     0.06910
N1646       N  0.94496442  0.29413682  0.28389902    -0.27480
N1647       N  0.95879663  0.29567186  0.27100339    -0.35340
C1648       C  0.94597258  0.31145440  0.26101125     0.00860
C1649       C  0.92296497  0.32048709  0.26793456     0.06880
C1650       C  0.92276078  0.30899173  0.28243211    -0.06210
H1651       H  0.95403841  0.31779339  0.25005872     0.07550
H1652       H  0.90853820  0.31256426  0.29154965     0.08750
Cu1653     Cu  0.49801860  0.28420602  0.26915265     0.44170
Cu1654     Cu  0.96003438  0.27507122  0.30321414     0.41990
Cu1655     Cu  0.53361613  0.27510096  0.30407436     0.43880
N1656       N  0.53754465  0.29468767  0.27175933    -0.34870
N1657       N  0.55056452  0.29341475  0.28495655    -0.29120
C1658       C  0.57331809  0.30786876  0.28377485    -0.05220
C1659       C  0.57429112  0.31880125  0.26913337     0.06990
C1660       C  0.55142307  0.30984557  0.26186021     0.00790
H1661       H  0.58709121  0.31161490  0.29314357     0.08440
H1662       H  0.54413737  0.31593544  0.25068924     0.07520
N1663       N  0.50934834  0.25345574  0.31902236    -0.36320
N1664       N  0.98286603  0.25340793  0.31872210    -0.28500
C1665       C  0.97369520  0.23490603  0.32864744    -0.03740
C1666       C  0.49539437  0.22285894  0.33549123     0.04870
C1667       C  0.51763869  0.23497890  0.32913326     0.02970
H1668       H  0.95286632  0.22949752  0.33005760     0.08070
H1669       H  0.53830348  0.22963502  0.33102021     0.06910
N1670       N  0.69613349  0.46097846  0.21789589    -0.27480
N1671       N  0.70979498  0.45954789  0.23087845    -0.35340
C1672       C  0.69669806  0.44382248  0.24084590     0.00860
C1673       C  0.67364919  0.43468302  0.23386278     0.06880
C1674       C  0.67372318  0.44605590  0.21931200    -0.06210
H1675       H  0.70454342  0.43769829  0.25188387     0.07550
H1676       H  0.65943834  0.44250243  0.21017463     0.08750
Cu1677     Cu  0.74901552  0.47125452  0.23318386     0.44170
Cu1678     Cu  0.71147073  0.48071550  0.19871269     0.41990
Cu1679     Cu  0.78526448  0.48256562  0.19917292     0.43880
N1680       N  0.78848455  0.46100279  0.23097333    -0.34870
N1681       N  0.80184965  0.46308566  0.21795004    -0.29120
C1682       C  0.82448252  0.44874151  0.21910452    -0.05220
C1683       C  0.82502001  0.43706606  0.23356785     0.06990
C1684       C  0.80200081  0.44543932  0.24075109     0.00790
H1685       H  0.83851100  0.44565332  0.20982865     0.08440
H1686       H  0.79439659  0.43873342  0.25174094     0.07520
N1687       N  0.76132829  0.00506551  0.18458532    -0.36320
N1688       N  0.73488682  0.00421907  0.18415758    -0.28500
C1689       C  0.72617661  0.02275932  0.17415501    -0.03740
C1690       C  0.74812843  0.03636055  0.16822952     0.04870
C1691       C  0.77000868  0.02426699  0.17501382     0.02970
H1692       H  0.70533597  0.02616262  0.17158824     0.08070
H1693       H  0.79081298  0.02975557  0.17358029     0.06910
C1694       C  0.50210796  0.12768070  0.37477345    -0.02680
O1695       O  0.97585683  0.28567588  0.00169302    -0.73130
O1696       O  0.53220956  0.23895021  0.02030945    -0.74120
O1697       O  0.53263320  0.28616463  0.00225854    -0.62730
O1698       O  0.97521735  0.23844884  0.01963847    -0.71150
O1699       O  0.97609490  0.21495002  0.99800186    -0.70700
O1700       O  0.53321721  0.26257885  0.98064834    -0.61950
O1701       O  0.53277566  0.21546838  0.99866525    -0.74460
O1702       O  0.97632216  0.26212494  0.98007121    -0.73240
Cu1703     Cu  0.50396313  0.26319256  0.01171709     1.04560
Cu1704     Cu  0.50463540  0.23791202  0.98861659     1.04330
C1705       C  0.96720236  0.28137183  0.98807540     0.93060
C1706       C  0.54133131  0.21969696  0.01231548     0.92200
C1707       C  0.54188972  0.28199627  0.98878125     0.84350
C1708       C  0.96664359  0.21906313  0.01142621     0.90620
O1709       O  0.97507572  0.48805938  0.98005690    -0.73130
O1710       O  0.53186136  0.03595625  0.99788797    -0.74120
O1711       O  0.53203601  0.48860252  0.98014136    -0.62730
O1712       O  0.97518069  0.03541980  0.99779644    -0.71150
O1713       O  0.97496989  0.01210343  0.01950500    -0.70700
O1714       O  0.53196487  0.46526240  0.00184242    -0.61950
O1715       O  0.53193126  0.01259910  0.01958115    -0.74460
O1716       O  0.97522313  0.46471626  0.00175252    -0.73240
Cu1717     Cu  0.50354024  0.01286779  0.98822833     1.04560
Cu1718     Cu  0.50351811  0.48780312  0.01141355     1.04330
C1719       C  0.96619783  0.46875883  0.98820430     0.93060
C1720       C  0.54083489  0.03189792  0.01144591     0.92200
C1721       C  0.54098723  0.46948879  0.98831494     0.84350
C1722       C  0.96611709  0.03125290  0.01131792     0.90620
N1723       N  0.91986226  0.07199284  0.03330155    -0.27480
N1724       N  0.92155026  0.08549283  0.02029220    -0.35340
C1725       C  0.93701736  0.07221812  0.01037447     0.00860
C1726       C  0.94573302  0.04926049  0.01743792     0.06880
C1727       C  0.93437010  0.04954000  0.03197309    -0.06210
H1728       H  0.94337110  0.07992673  0.99933993     0.07550
H1729       H  0.93771104  0.03541162  0.04116633     0.08750
Cu1730     Cu  0.91086729  0.12475922  0.01790819     0.44170
Cu1731     Cu  0.90046887  0.08757762  0.05237410     0.41990
Cu1732     Cu  0.90001699  0.16128840  0.05176868     0.43880
N1733       N  0.92183293  0.16414873  0.02004320    -0.34870
N1734       N  0.91983480  0.17763005  0.03302194    -0.29120
C1735       C  0.93438755  0.20028570  0.03183115    -0.05220
C1736       C  0.94612489  0.20072417  0.01739013     0.06990
C1737       C  0.93757586  0.17761495  0.01025340     0.00790
H1738       H  0.93751382  0.21444385  0.04106105     0.08440
H1739       H  0.94420070  0.16998216  0.99927387     0.07520
N1740       N  0.87666822  0.13758306  0.06611021    -0.36320
N1741       N  0.87697792  0.11119428  0.06654202    -0.28500
C1742       C  0.85787538  0.10260703  0.07627998    -0.03740
C1743       C  0.84452591  0.12459188  0.08202779     0.04870
C1744       C  0.85728487  0.14636979  0.07544998     0.02970
H1745       H  0.85392697  0.08183930  0.07880527     0.08070
H1746       H  0.85219341  0.16716094  0.07689300     0.06910
N1747       N  0.58668521  0.42889514  0.96595224    -0.27480
N1748       N  0.58583610  0.41559793  0.97905258    -0.35340
C1749       C  0.57074854  0.42889784  0.98916640     0.00860
C1750       C  0.56144460  0.45165075  0.98211787     0.06880
C1751       C  0.57206844  0.45122949  0.96740916    -0.06210
H1752       H  0.56495417  0.42127950  0.00032194     0.07550
H1753       H  0.56797349  0.46506131  0.95816851     0.08750
Cu1754     Cu  0.59691336  0.37640395  0.98126144     0.44170
Cu1755     Cu  0.60442481  0.41297645  0.94647919     0.41990
Cu1756     Cu  0.60483285  0.33964815  0.94669803     0.43880
N1757       N  0.58617965  0.33691894  0.97928763    -0.34870
N1758       N  0.58719955  0.32346118  0.96624782    -0.29120
C1759       C  0.57284942  0.30076651  0.96781951    -0.05220
C1760       C  0.56222380  0.30026313  0.98253995     0.06990
C1761       C  0.57124086  0.32338020  0.98946946     0.00790
H1762       H  0.56891061  0.28670034  0.95864201     0.08440
H1763       H  0.56534000  0.33102413  0.00058360     0.07520
N1764       N  0.62562381  0.36327396  0.93103099    -0.36320
N1765       N  0.62546037  0.38969769  0.93095723    -0.28500
C1766       C  0.64365186  0.39858468  0.92076218    -0.03740
C1767       C  0.65571436  0.37677468  0.91410160     0.04870
C1768       C  0.64392808  0.35473985  0.92087482     0.02970
H1769       H  0.64901585  0.41933534  0.91912185     0.08070
H1770       H  0.64955945  0.33411406  0.91933048     0.06910
N1771       N  0.58685157  0.07280584  0.03391601    -0.27480
N1772       N  0.58533973  0.08664054  0.02103721    -0.35340
C1773       C  0.56997357  0.07341901  0.01090286     0.00860
C1774       C  0.56118518  0.05012589  0.01772305     0.06880
C1775       C  0.57237862  0.05019521  0.03231716    -0.06210
H1776       H  0.56370559  0.08134761  0.99991513     0.07550
H1777       H  0.56885835  0.03583824  0.04138956     0.08750
Cu1778     Cu  0.59627943  0.12611822  0.01946865     0.44170
Cu1779     Cu  0.60548397  0.08852897  0.05323892     0.41990
Cu1780     Cu  0.60391661  0.16199491  0.05466684     0.43880
N1781       N  0.58541263  0.16530601  0.02198802    -0.34870
N1782       N  0.58604997  0.17837237  0.03517988    -0.29120
C1783       C  0.57161843  0.20087146  0.03366075    -0.05220
C1784       C  0.56140069  0.20161487  0.01881463     0.06990
C1785       C  0.57072339  0.17887524  0.01178569     0.00790
H1786       H  0.56747368  0.21468270  0.04290043     0.08440
H1787       H  0.56525131  0.17148046  0.00051609     0.07520
N1788       N  0.62598820  0.13807022  0.06959530    -0.36320
N1789       N  0.62682780  0.11172558  0.06882594    -0.28500
C1790       C  0.64578643  0.10283118  0.07847420    -0.03740
C1791       C  0.65733703  0.12446917  0.08591995     0.04870
C1792       C  0.64426981  0.14648835  0.07990871     0.02970
H1793       H  0.65201699  0.08225565  0.07905765     0.08070
H1794       H  0.64871901  0.16724920  0.08224773     0.06910
N1795       N  0.92010249  0.42749528  0.96592696    -0.27480
N1796       N  0.92166148  0.41389893  0.97889285    -0.35340
C1797       C  0.93702665  0.42731309  0.98893893     0.00860
C1798       C  0.94580906  0.45048264  0.98198763     0.06880
C1799       C  0.93458071  0.45015061  0.96739426    -0.06210
H1800       H  0.94333318  0.41956489  0.99996258     0.07550
H1801       H  0.93809902  0.46434401  0.95823697     0.08750
Cu1802     Cu  0.91106318  0.37437481  0.98078082     0.44170
Cu1803     Cu  0.90145244  0.41135013  0.94666104     0.41990
Cu1804     Cu  0.90350988  0.33790257  0.94588036     0.43880
N1805       N  0.92247719  0.33529734  0.97846052    -0.34870
N1806       N  0.92174396  0.32202823  0.96534057    -0.29120
C1807       C  0.93644080  0.29971849  0.96686037    -0.05220
C1808       C  0.94695428  0.29929629  0.98163216     0.06990
C1809       C  0.93752604  0.32203446  0.98862907     0.00790
H1810       H  0.94053462  0.28581780  0.95765776     0.08440
H1811       H  0.94310962  0.32961881  0.99983905     0.07520
N1812       N  0.88157446  0.36118882  0.93062100    -0.36320
N1813       N  0.88060937  0.38755450  0.93106772    -0.28500
C1814       C  0.86208183  0.39598056  0.92100017    -0.03740
C1815       C  0.85095969  0.37398797  0.91366997     0.04870
C1816       C  0.86377724  0.35227434  0.92016706     0.02970
H1817       H  0.85589057  0.41652021  0.91994125     0.08070
H1818       H  0.85957659  0.33141037  0.91799472     0.06910
C1819       C  0.75416935  0.12874174  0.12564087    -0.02680
C1820       C  0.75252715  0.37349865  0.87558617    -0.02680
C1821       C  0.80854923  0.35272922  0.90478280    -0.09350
C1822       C  0.82727038  0.37345692  0.90334021     0.06850
C1823       C  0.82266690  0.39331451  0.89227327    -0.03110
C1824       C  0.79906843  0.39301787  0.88365061    -0.07560
C1825       C  0.77895713  0.37310988  0.88549641     0.05960
C1826       C  0.78505008  0.35201587  0.89600915    -0.02590
Br1827     Br  0.76239363  0.32164420  0.90003516    -0.02280
H1828       H  0.81191352  0.33702914  0.91309978     0.09880
H1829       H  0.79747868  0.40826369  0.87497722     0.07890
Br1830     Br  0.84879279  0.42019886  0.88723167    -0.02710
C1831       C  0.70006859  0.14551976  0.09426527    -0.09350
C1832       C  0.68157989  0.12464484  0.09584071     0.06850
C1833       C  0.68720033  0.10424137  0.10643378    -0.03110
C1834       C  0.71079709  0.10507785  0.11507634    -0.07560
C1835       C  0.72880942  0.12714695  0.11465661     0.05960
C1836       C  0.72330779  0.14693019  0.10321494    -0.02590
Br1837     Br  0.74525583  0.17766418  0.09909929    -0.02280
H1838       H  0.69653231  0.16101842  0.08584537     0.09880
H1839       H  0.71446587  0.08780705  0.12209632     0.07890
Br1840     Br  0.66270147  0.07551032  0.11075424    -0.02710
C1841       C  0.72817303  0.37680736  0.90204125    -0.09350
C1842       C  0.72661382  0.37509695  0.88577638     0.06850
C1843       C  0.70026939  0.37595656  0.87921654    -0.03110
C1844       C  0.67762200  0.37658811  0.88864440    -0.07560
C1845       C  0.67996803  0.37696631  0.90459207     0.05960
C1846       C  0.70540648  0.37744777  0.91129320    -0.02590
Br1847     Br  0.71008899  0.37916009  0.93316644    -0.02280
H1848       H  0.74707239  0.37833739  0.90793571     0.09880
H1849       H  0.65789924  0.37654326  0.88346558     0.07890
Br1850     Br  0.69235575  0.37475703  0.85758042    -0.02710
C1851       C  0.82059328  0.14662257  0.10332362    -0.09350
C1852       C  0.82163944  0.12552966  0.09284779     0.06850
C1853       C  0.80019086  0.10725863  0.09240951    -0.03110
C1854       C  0.77934287  0.10943804  0.10301959    -0.07560
C1855       C  0.77860209  0.12974064  0.11441599     0.05960
C1856       C  0.79926736  0.14979558  0.11353418    -0.02590
Br1857     Br  0.80029598  0.18456558  0.12304211    -0.02280
H1858       H  0.83641083  0.16150776  0.10325442     0.09880
H1859       H  0.76372450  0.09437847  0.10263706     0.07890
Br1860     Br  0.79704210  0.07958014  0.07725811    -0.02710
C1861       C  0.77079300  0.06118519  0.14729421    -0.09350
C1862       C  0.74906458  0.05926089  0.15734028     0.06850
C1863       C  0.73043576  0.08015174  0.15749483    -0.03110
C1864       C  0.73336163  0.10159646  0.14734898    -0.07560
C1865       C  0.75469533  0.10363149  0.13662425     0.05960
C1866       C  0.77457197  0.08303894  0.13747821    -0.02590
Br1867     Br  0.80994582  0.08284365  0.12861966    -0.02280
H1868       H  0.78579125  0.04569553  0.14746741     0.09880
H1869       H  0.71828184  0.11698589  0.14768216     0.07890
Br1870     Br  0.70160397  0.08223507  0.17196708    -0.02710
C1871       C  0.99868985  0.15096310  0.34813965    -0.09350
C1872       C  0.49967503  0.15302460  0.36439472     0.06850
C1873       C  0.49624594  0.17925022  0.37072756    -0.03110
C1874       C  0.49414637  0.20150831  0.36108291    -0.07560
C1875       C  0.49516689  0.19884134  0.34516206     0.05960
C1876       C  0.99699236  0.17337888  0.33867893    -0.02590
Br1877     Br  0.99708992  0.16819260  0.31682908    -0.02280
H1878       H  0.99867684  0.13194429  0.34240223     0.09880
H1879       H  0.49262489  0.22124749  0.36608147     0.07890
Br1880     Br  0.49752702  0.18786867  0.39226955    -0.02710
C1881       C  0.76857025  0.18015225  0.15866143    -0.09350
C1882       C  0.74819296  0.19879328  0.15662754     0.06850
C1883       C  0.72875692  0.19390578  0.14529527    -0.03110
C1884       C  0.73029734  0.17107163  0.13616423    -0.07560
C1885       C  0.75229287  0.15331785  0.13682953     0.05960
C1886       C  0.77075711  0.15767620  0.14919145    -0.02590
Br1887     Br  0.80132451  0.13597304  0.15350982    -0.02280
H1888       H  0.78327724  0.18323174  0.16765469     0.09880
H1889       H  0.71372946  0.16794803  0.12848123     0.07890
Br1890     Br  0.70055724  0.21849263  0.14065880    -0.02710
C1891       C  0.52246090  0.06991430  0.34658597    -0.09350
C1892       C  0.50221699  0.05098797  0.34893458     0.06850
C1893       C  0.98337609  0.05568509  0.36054258    -0.03110
C1894       C  0.98402198  0.07967424  0.36876009    -0.07560
C1895       C  0.50268008  0.10049989  0.36550515     0.05960
C1896       C  0.52333746  0.09389986  0.35481890    -0.02590
Br1897     Br  0.55381407  0.11583435  0.35018904    -0.02280
H1898       H  0.53768736  0.06625545  0.33801458     0.09880
H1899       H  0.96980941  0.08123966  0.37801169     0.07890
Br1900     Br  0.95741852  0.02930428  0.36660779    -0.02710
C1901       C  0.97808509  0.13024560  0.40150852    -0.09350
C1902       C  0.97634082  0.12859945  0.38522510     0.06850
C1903       C  0.94986999  0.12854914  0.37881671    -0.03110
C1904       C  0.92733760  0.12912980  0.38835640    -0.07560
C1905       C  0.92988861  0.13012923  0.40429631     0.05960
C1906       C  0.95543106  0.13084830  0.41086308    -0.02590
Br1907     Br  0.96043122  0.13294238  0.43270507    -0.02280
H1908       H  0.99697583  0.13231963  0.40735379     0.09880
H1909       H  0.90754748  0.12858180  0.38327076     0.07890
Br1910     Br  0.94180864  0.12614998  0.35723079    -0.02710
C1911       C  0.57187708  0.14347736  0.39445687    -0.09350
C1912       C  0.57343009  0.12243558  0.40494759     0.06850
C1913       C  0.55318926  0.10282277  0.40474624    -0.03110
C1914       C  0.53180161  0.10510023  0.39449943    -0.07560
C1915       C  0.52861913  0.12730278  0.38455222     0.05960
C1916       C  0.55053624  0.14606603  0.38413704    -0.02590
Br1917     Br  0.55701540  0.17448185  0.36958611    -0.02280
H1918       H  0.58798442  0.15804386  0.39409409     0.09880
H1919       H  0.51638979  0.08984320  0.39495979     0.07890
Br1920     Br  0.55149068  0.07379883  0.41910942    -0.02710
C1921       C  0.52880024  0.39368598  0.60373015    -0.09350
C1922       C  0.52743339  0.37293748  0.61483066     0.06850
C1923       C  0.54828132  0.35331039  0.61406011    -0.03110
C1924       C  0.56982589  0.35690439  0.60399423    -0.07560
C1925       C  0.57117495  0.37815676  0.59362595     0.05960
C1926       C  0.55001364  0.39648147  0.59338379    -0.02590
Br1927     Br  0.54730646  0.42463079  0.57852812    -0.02280
H1928       H  0.51304810  0.40837745  0.60322613     0.09880
H1929       H  0.58554030  0.34213407  0.60389677     0.07890
Br1930     Br  0.54936189  0.31848703  0.62351749    -0.02710
C1931       C  0.95919471  0.39556771  0.61485914    -0.09350
C1932       C  0.97732524  0.37384069  0.61466206     0.06850
C1933       C  0.97245473  0.35407040  0.60308116    -0.03110
C1934       C  0.94963559  0.35518238  0.59375772    -0.07560
C1935       C  0.93110891  0.37582975  0.59505703     0.05960
C1936       C  0.93607378  0.39612637  0.60585033    -0.02590
Br1937     Br  0.91124664  0.42434485  0.60994816    -0.02280
H1938       H  0.96231030  0.41276812  0.62205401     0.09880
H1939       H  0.94656711  0.33977595  0.58518833     0.07890
Br1940     Br  0.49510490  0.32418014  0.59891976    -0.02710
C1941       C  0.74995041  0.39704038  0.84883782    -0.09350
C1942       C  0.75123750  0.39906227  0.86510346     0.06850
C1943       C  0.75007219  0.42552894  0.87137648    -0.03110
C1944       C  0.74930445  0.44784740  0.86170996    -0.07560
C1945       C  0.74917799  0.44506000  0.84578287     0.05960
C1946       C  0.74922323  0.41948563  0.83934551    -0.02590
Br1947     Br  0.74801533  0.41417467  0.81751324    -0.02280
H1948       H  0.74872042  0.37801608  0.84311782     0.09880
H1949       H  0.74902880  0.46766868  0.86668765     0.07890
Br1950     Br  0.75085362  0.43404576  0.89293452    -0.02710
C1951       C  0.77372395  0.31687916  0.84702280    -0.09350
C1952       C  0.75273996  0.29841436  0.84838500     0.06850
C1953       C  0.73272962  0.30323368  0.85932716    -0.03110
C1954       C  0.73304548  0.32687892  0.86782978    -0.07560
C1955       C  0.75310013  0.34684246  0.86596123     0.05960
C1956       C  0.77445407  0.34042674  0.85568839    -0.02590
Br1957     Br  0.80515692  0.36274473  0.85181229    -0.02280
H1958       H  0.78957985  0.31331142  0.83882794     0.09880
H1959       H  0.71764825  0.32865124  0.87640759     0.07890
Br1960     Br  0.70553708  0.27739147  0.86432295    -0.02710
C1961       C  0.98230596  0.42594518  0.65704457    -0.09350
C1962       C  0.50199584  0.44569945  0.65541846     0.06850
C1963       C  0.52206116  0.44200410  0.64433116    -0.03110
C1964       C  0.52249291  0.41873138  0.63547381    -0.07560
C1965       C  0.50234398  0.39868655  0.63653515     0.05960
C1966       C  0.98216820  0.40286791  0.64796447    -0.02590
Br1967     Br  0.95228520  0.37929545  0.65161392    -0.02280
H1968       H  0.96678860  0.42835362  0.66559550     0.09880
H1969       H  0.53947689  0.41668490  0.62801226     0.07890
Br1970     Br  0.54866716  0.96869368  0.63978008    -0.02710
C1971       C  0.98147053  0.32896198  0.63608889    -0.09350
C1972       C  0.50171971  0.34886095  0.63711022     0.06850
C1973       C  0.52027189  0.34632426  0.64957896    -0.03110
C1974       C  0.51896043  0.32431813  0.65948777    -0.07560
C1975       C  0.49964537  0.30423044  0.65763132     0.05960
C1976       C  0.98079065  0.30673372  0.64574542    -0.02590
Br1977     Br  0.95456627  0.27965882  0.64117368    -0.02280
H1978       H  0.96545337  0.33020857  0.62788346     0.09880
H1979       H  0.53351722  0.32274982  0.66867074     0.07890
Br1980     Br  0.55015469  0.36994004  0.65318948    -0.02710
O1981       O  0.66036143  0.59577867  0.74936111    -0.73130
O1982       O  0.61306256  0.65265851  0.73181977    -0.74120
O1983       O  0.66073524  0.65243697  0.74944412    -0.62730
O1984       O  0.61274330  0.59574105  0.73173103    -0.71150
O1985       O  0.58956239  0.59567188  0.75348719    -0.70700
O1986       O  0.63755868  0.65240991  0.77120093    -0.61950
O1987       O  0.58993473  0.65229513  0.75359232    -0.74460
O1988       O  0.63718194  0.59552674  0.77111668    -0.73240
Cu1989     Cu  0.63758285  0.62415896  0.73984205     1.04560
Cu1990     Cu  0.61270488  0.62397453  0.76309114     1.04330
C1991       C  0.65627233  0.58666210  0.76288568     0.93060
C1992       C  0.59396955  0.66146207  0.74007801     0.92200
C1993       C  0.65677627  0.66138078  0.76300529     0.84350
C1994       C  0.59354696  0.58673213  0.73992713     0.90620
O1995       O  0.91091229  0.65103268  0.75368938    -0.73130
O1996       O  0.86319802  0.59364856  0.77069725    -0.74120
O1997       O  0.91055769  0.59441485  0.75288390    -0.62730
O1998       O  0.86352747  0.65043831  0.77142806    -0.71150
O1999       O  0.84010871  0.65111205  0.74972468    -0.70700
O2000       O  0.88717290  0.59505701  0.73117182    -0.61950
O2001       O  0.83973243  0.59446922  0.74901126    -0.74460
O2002       O  0.88751833  0.65199728  0.73198023    -0.73240
Cu2003     Cu  0.88792022  0.62234542  0.76290780     1.04560
Cu2004     Cu  0.86276624  0.62318003  0.73972454     1.04330
C2005       C  0.90678407  0.66062923  0.74029461     0.93060
C2006       C  0.84383499  0.58504953  0.76245975     0.92200
C2007       C  0.90637596  0.58587874  0.73923191     0.84350
C2008       C  0.84432451  0.65962822  0.76337338     0.90620
N2009       N  0.94753414  0.70834793  0.71898784    -0.27480
N2010       N  0.96115894  0.70629374  0.73193818    -0.35340
C2011       C  0.94794292  0.69019092  0.74164858     0.00860
C2012       C  0.92488476  0.68145974  0.73447657     0.06880
C2013       C  0.92506004  0.69347955  0.72011859    -0.06210
H2014       H  0.95575976  0.68343609  0.75256923     0.07550
H2015       H  0.91089292  0.69030017  0.71087677     0.08750
Cu2016     Cu  0.50057471  0.71746111  0.73407896     0.44170
Cu2017     Cu  0.96343860  0.72828271  0.70017609     0.41990
Cu2018     Cu  0.53714508  0.72788480  0.69948073     0.43880
N2019       N  0.53980992  0.70653766  0.73150772    -0.34870
N2020       N  0.55311043  0.70827198  0.71843227    -0.29120
C2021       C  0.57548941  0.69353882  0.71958697    -0.05220
C2022       C  0.57592484  0.68197792  0.73407859     0.06990
C2023       C  0.55313369  0.69082422  0.74129380     0.00790
H2024       H  0.58944310  0.69018572  0.71030525     0.08440
H2025       H  0.54554818  0.68442015  0.75234706     0.07520
N2026       N  0.51331827  0.75039042  0.68481107    -0.36320
N2027       N  0.98686796  0.75059913  0.68518851    -0.28500
C2028       C  0.97793639  0.76917591  0.67534098    -0.03740
C2029       C  0.49969701  0.78110712  0.66824699     0.04870
C2030       C  0.52180203  0.76880017  0.67463886     0.02970
H2031       H  0.95714958  0.77457373  0.67413053     0.08070
H2032       H  0.54258873  0.77349158  0.67242545     0.06910
N2033       N  0.94721686  0.54019072  0.71674098    -0.27480
N2034       N  0.96047979  0.54120824  0.72987987    -0.35340
C2035       C  0.94715772  0.55638881  0.73992634     0.00860
C2036       C  0.92438756  0.56566307  0.73284812     0.06880
C2037       C  0.92484185  0.55489284  0.71813873    -0.06210
H2038       H  0.95473817  0.56216159  0.75110885     0.07550
H2039       H  0.91089177  0.55876615  0.70890249     0.08750
Cu2040     Cu  0.49969566  0.53020792  0.73243804     0.44170
Cu2041     Cu  0.96322451  0.52145873  0.69743330     0.41990
Cu2042     Cu  0.53684267  0.52135820  0.69850887     0.43880
N2043       N  0.53908545  0.54160329  0.73066538    -0.34870
N2044       N  0.55272923  0.54024851  0.71771374    -0.29120
C2045       C  0.57521449  0.55501315  0.71916837    -0.05220
C2046       C  0.57538652  0.56624059  0.73374188     0.06990
C2047       C  0.55229626  0.55716183  0.74070086     0.00790
H2048       H  0.58940195  0.55867570  0.71001915     0.08440
H2049       H  0.54446864  0.56332792  0.75172365     0.07520
N2050       N  0.51376439  0.99961675  0.68302097    -0.36320
N2051       N  0.98732402  0.99969490  0.68245104    -0.28500
C2052       C  0.97916458  0.98143553  0.67206370    -0.03740
C2053       C  0.50147922  0.96931933  0.66574802     0.04870
C2054       C  0.52299225  0.98127159  0.67313109     0.02970
H2055       H  0.95844789  0.97650599  0.66977011     0.08070
H2056       H  0.54380157  0.97581779  0.67222632     0.06910
N2057       N  0.69810650  0.70732447  0.78528694    -0.27480
N2058       N  0.71172807  0.70583678  0.77232678    -0.35340
C2059       C  0.69826131  0.69057251  0.76225577     0.00860
C2060       C  0.67504951  0.68177781  0.76919412     0.06880
C2061       C  0.67539814  0.69290447  0.78379455    -0.06210
H2062       H  0.70603483  0.68428560  0.75124284     0.07550
H2063       H  0.66121519  0.68930159  0.79295366     0.08750
Cu2064     Cu  0.75140587  0.71619712  0.77051520     0.44170
Cu2065     Cu  0.71430588  0.72556430  0.80464554     0.41990
Cu2066     Cu  0.78776252  0.72276386  0.80561452     0.43880
N2067       N  0.79046027  0.70446301  0.77292748    -0.34870
N2068       N  0.80364293  0.70489734  0.78609869    -0.29120
C2069       C  0.82590723  0.69011194  0.78460468    -0.05220
C2070       C  0.82639182  0.67983122  0.76979968     0.06990
C2071       C  0.80374370  0.68949646  0.76274790     0.00790
H2072       H  0.83971605  0.68579504  0.79384446     0.08440
H2073       H  0.79622306  0.68414431  0.75148397     0.07520
N2074       N  0.76460863  0.74445653  0.82098441    -0.36320
N2075       N  0.73821032  0.74572763  0.82046179    -0.28500
C2076       C  0.72990638  0.76412397  0.83059966    -0.03740
C2077       C  0.75202070  0.77483219  0.83805016     0.04870
C2078       C  0.77367542  0.76190941  0.83155911     0.02970
H2079       H  0.70939969  0.77056424  0.83160272     0.08070
H2080       H  0.79461439  0.76586569  0.83378539     0.06910
N2081       N  0.69679874  0.54010596  0.78486748    -0.27480
N2082       N  0.71013387  0.54138295  0.77178881    -0.35340
C2083       C  0.69693958  0.55694093  0.76185099     0.00860
C2084       C  0.67419614  0.56612810  0.76897928     0.06880
C2085       C  0.67453043  0.55494382  0.78356511    -0.06210
H2086       H  0.70458834  0.56301401  0.75075094     0.07550
H2087       H  0.66061733  0.55867824  0.79281758     0.08750
Cu2088     Cu  0.74926697  0.52996989  0.76942312     0.44170
Cu2089     Cu  0.71261131  0.52117670  0.80407613     0.41990
Cu2090     Cu  0.78615147  0.52073531  0.80384191     0.43880
N2091       N  0.78885415  0.54052856  0.77149936    -0.34870
N2092       N  0.80235556  0.53907683  0.78452794    -0.29120
C2093       C  0.82507779  0.55348262  0.78312268    -0.05220
C2094       C  0.82555008  0.56458312  0.76851872     0.06990
C2095       C  0.80239438  0.55579113  0.76148464     0.00790
H2096       H  0.83918772  0.55709986  0.79234169     0.08440
H2097       H  0.79471574  0.56205117  0.75043347     0.07520
N2098       N  0.76252090  0.99935210  0.81923156    -0.36320
N2099       N  0.73603622  0.99945140  0.81932019    -0.28500
C2100       C  0.72724078  0.98109688  0.82944702    -0.03740
C2101       C  0.74918213  0.96901070  0.83602948     0.04870
C2102       C  0.77118397  0.98094948  0.82929195     0.02970
H2103       H  0.70645741  0.97581229  0.83118851     0.08070
H2104       H  0.79189983  0.97552377  0.83088459     0.06910
C2105       C  0.50238047  0.87317740  0.62582469    -0.02680
O2106       O  0.72667436  0.96602078  0.49756200    -0.73130
O2107       O  0.78348300  0.51375021  0.47968635    -0.74120
O2108       O  0.78339963  0.96615909  0.49722096    -0.62730
O2109       O  0.72655764  0.51346626  0.47994131    -0.71150
O2110       O  0.72702484  0.53665616  0.50170149    -0.70700
O2111       O  0.78400652  0.98921563  0.51902607    -0.61950
O2112       O  0.78375309  0.53680304  0.50149275    -0.74460
O2113       O  0.72697374  0.98919987  0.51932348    -0.73240
Cu2114     Cu  0.75502639  0.98898979  0.48786143     1.04560
Cu2115     Cu  0.75546922  0.51382011  0.51113567     1.04330
C2116       C  0.71779319  0.97008341  0.51113165     0.93060
C2117       C  0.79252476  0.53293106  0.48789012     0.92200
C2118       C  0.79267196  0.97012508  0.51072727     0.84350
C2119       C  0.71778917  0.53255172  0.48818868     0.90620
O2120       O  0.72232959  0.76370350  0.51975858    -0.73130
O2121       O  0.77898679  0.71613791  0.50186868    -0.74120
O2122       O  0.77938447  0.76363290  0.51959468    -0.62730
O2123       O  0.72218349  0.71601074  0.50217895    -0.71150
O2124       O  0.72173306  0.73906044  0.48038431    -0.70700
O2125       O  0.77924849  0.78675494  0.49782168    -0.61950
O2126       O  0.77876209  0.73932350  0.48012126    -0.74460
O2127       O  0.72250864  0.78670214  0.49794716    -0.73240
Cu2128     Cu  0.75071700  0.73900956  0.51159606     1.04560
Cu2129     Cu  0.75054578  0.76380975  0.48832851     1.04330
C2130       C  0.71354635  0.78284628  0.51151933     0.93060
C2131       C  0.78782331  0.72023989  0.48827227     0.92200
C2132       C  0.78837860  0.78274819  0.51135927     0.84350
C2133       C  0.71294255  0.71988311  0.48866785     0.90620
N2134       N  0.67086904  0.57264512  0.46623340    -0.27480
N2135       N  0.67193532  0.58591978  0.47934560    -0.35340
C2136       C  0.68770684  0.57293485  0.48927401     0.00860
C2137       C  0.69719038  0.55038535  0.48210490     0.06880
C2138       C  0.68600684  0.55062007  0.46751022    -0.06210
H2139       H  0.69358697  0.58053843  0.50042976     0.07550
H2140       H  0.68984824  0.53675460  0.45825250     0.08750
Cu2141     Cu  0.65947246  0.62463062  0.48189633     0.44170
Cu2142     Cu  0.65148063  0.58791371  0.44704821     0.41990
Cu2143     Cu  0.64758163  0.66126892  0.44794400     0.43880
N2144       N  0.66888797  0.66442334  0.47989431    -0.34870
N2145       N  0.66665694  0.67792790  0.46693097    -0.29120
C2146       C  0.68079930  0.70083848  0.46820697    -0.05220
C2147       C  0.69248530  0.70143771  0.48268254     0.06990
C2148       C  0.68431157  0.67816041  0.48975614     0.00790
H2149       H  0.68381768  0.71501607  0.45898456     0.08440
H2150       H  0.69117917  0.67053057  0.50069603     0.07520
N2151       N  0.62622025  0.63684828  0.43290337    -0.36320
N2152       N  0.62791921  0.61053292  0.43236068    -0.28500
C2153       C  0.61003633  0.60113442  0.42209121    -0.03740
C2154       C  0.59594881  0.62247214  0.41609873     0.04870
C2155       C  0.60708549  0.64477143  0.42309719     0.02970
H2156       H  0.60741735  0.58023597  0.41939272     0.08070
H2157       H  0.60097660  0.66527583  0.42161900     0.06910
N2158       N  0.83722445  0.57524733  0.46548611    -0.27480
N2159       N  0.83615846  0.58839423  0.47862948    -0.35340
C2160       C  0.82152905  0.57442244  0.48874982     0.00860
C2161       C  0.81269962  0.55137543  0.48166890     0.06880
C2162       C  0.82316081  0.55233835  0.46691975    -0.06210
H2163       H  0.81557938  0.58177539  0.49992108     0.07550
H2164       H  0.81927030  0.53845948  0.45764203     0.08750
Cu2165     Cu  0.84586267  0.62808938  0.48087090     0.44170
Cu2166     Cu  0.85453061  0.59212895  0.44605693     0.41990
Cu2167     Cu  0.85378608  0.66550355  0.44649958     0.43880
N2168       N  0.83351256  0.66693145  0.47882701    -0.34870
N2169       N  0.83455413  0.68056846  0.46584668    -0.29120
C2170       C  0.81943130  0.70258029  0.46735276    -0.05220
C2171       C  0.80831600  0.70244611  0.48196726     0.06990
C2172       C  0.81782249  0.67966416  0.48889728     0.00790
H2173       H  0.81555413  0.71671364  0.45823341     0.08440
H2174       H  0.81199831  0.67174486  0.49997786     0.07520
N2175       N  0.87547579  0.64262895  0.43092457    -0.36320
N2176       N  0.87549649  0.61620048  0.43071931    -0.28500
C2177       C  0.89376553  0.60783678  0.42049472    -0.03740
C2178       C  0.90575097  0.62996048  0.41395076     0.04870
C2179       C  0.89381277  0.65167713  0.42083799     0.02970
H2180       H  0.89918545  0.58720928  0.41871790     0.08070
H2181       H  0.89922716  0.67244687  0.41933894     0.06910
N2182       N  0.67018923  0.93007358  0.53309957    -0.27480
N2183       N  0.67170567  0.91638241  0.52015276    -0.35340
C2184       C  0.68779249  0.92924805  0.51027650     0.00860
C2185       C  0.69709388  0.95215022  0.51729588     0.06880
C2186       C  0.68543328  0.95225359  0.53176280    -0.06210
H2187       H  0.69400786  0.92134710  0.49928014     0.07550
H2188       H  0.68894014  0.96652194  0.54089229     0.08750
Cu2189     Cu  0.65958822  0.87735784  0.51784005     0.44170
Cu2190     Cu  0.64984461  0.91508162  0.55212920     0.41990
Cu2191     Cu  0.64787315  0.84139380  0.55187452     0.43880
N2192       N  0.66964983  0.83791445  0.52013706    -0.34870
N2193       N  0.66752180  0.82463335  0.53318529    -0.29120
C2194       C  0.68175047  0.80193540  0.53205135    -0.05220
C2195       C  0.69336929  0.80126226  0.51756736     0.06990
C2196       C  0.68509033  0.82428296  0.51036565     0.00790
H2197       H  0.68471701  0.78788657  0.54132770     0.08440
H2198       H  0.69174569  0.83176918  0.49933903     0.07520
N2199       N  0.62514267  0.86548505  0.56626997    -0.36320
N2200       N  0.62598486  0.89187956  0.56657252    -0.28500
C2201       C  0.60739149  0.90072198  0.57650264    -0.03260
C2202       C  0.59380973  0.87890504  0.58254888     0.04870
C2203       C  0.60590865  0.85696556  0.57588514     0.02970
H2204       H  0.60399977  0.92154879  0.57899078     0.08070
H2205       H  0.60048183  0.83622254  0.57749324     0.06910
N2206       N  0.83872264  0.92890759  0.53254823    -0.27480
N2207       N  0.83666636  0.91531413  0.51959506    -0.35340
C2208       C  0.82130978  0.92877685  0.50967222     0.00860
C2209       C  0.81305285  0.95194669  0.51671605     0.06880
C2210       C  0.82458724  0.95158322  0.53121627    -0.06210
H2211       H  0.81456336  0.92102320  0.49871212     0.07550
H2212       H  0.82144214  0.96572304  0.54042574     0.08750
Cu2213     Cu  0.84637370  0.87570116  0.51771562     0.44170
Cu2214     Cu  0.85732299  0.91270754  0.55165890     0.41990
Cu2215     Cu  0.85428460  0.83935665  0.55273285     0.43880
N2216       N  0.83427352  0.83671248  0.52029867    -0.34870
N2217       N  0.83523439  0.82352948  0.53343891    -0.29120
C2218       C  0.82011539  0.80126084  0.53213005    -0.05220
C2219       C  0.80907525  0.80077323  0.51748732     0.06990
C2220       C  0.81863592  0.82342705  0.51033069     0.00790
H2221       H  0.81612035  0.78742423  0.54140428     0.08440
H2222       H  0.81281124  0.83092913  0.49916318     0.07520
N2223       N  0.87671768  0.86283114  0.56782173    -0.36320
N2224       N  0.87804105  0.88917761  0.56718764    -0.28500
C2225       C  0.89676689  0.89787125  0.57711084    -0.03740
C2226       C  0.90760081  0.87609240  0.58460842     0.04870
C2227       C  0.89445596  0.85419069  0.57831490     0.02970
H2228       H  0.90323256  0.91844083  0.57794297     0.08070
H2229       H  0.89836175  0.83338985  0.58067701     0.06910
O2230       O  0.86243070  0.90809006  0.23124196    -0.73130
O2231       O  0.90953796  0.85065262  0.24844562    -0.74120
O2232       O  0.86206838  0.85118429  0.23059862    -0.62730
O2233       O  0.90994972  0.90734408  0.24909747    -0.71150
O2234       O  0.88647264  0.90670870  0.27074584    -0.70700
O2235       O  0.83874369  0.85061244  0.25230243    -0.61950
O2236       O  0.88604970  0.84992217  0.27009034    -0.74460
O2237       O  0.83907826  0.90714186  0.25292980    -0.73240
Cu2238     Cu  0.88687849  0.87935282  0.23909660     1.04560
Cu2239     Cu  0.86173302  0.87858101  0.26224808     1.04330
C2240       C  0.84319824  0.91661432  0.23949619     0.93060
C2241       C  0.90522797  0.84121373  0.26187574     0.92200
C2242       C  0.84278747  0.84202279  0.23867641     0.84350
C2243       C  0.90583547  0.91586239  0.26273923     0.90620
O2244       O  0.65976298  0.90501983  0.25358022    -0.73130
O2245       O  0.61205011  0.84791616  0.27128236    -0.74120
O2246       O  0.65939243  0.84841069  0.25345901    -0.62730
O2247       O  0.61254588  0.90471415  0.27155474    -0.71150
O2248       O  0.58893257  0.90506723  0.24991446    -0.70700
O2249       O  0.63582710  0.84845213  0.23179934    -0.61950
O2250       O  0.58853648  0.84845050  0.24961153    -0.74460
O2251       O  0.63613768  0.90531948  0.23194757    -0.73240
Cu2252     Cu  0.63681729  0.87651094  0.26320659     1.04560
Cu2253     Cu  0.61148713  0.87683105  0.24007783     1.04330
C2254       C  0.65553186  0.91415810  0.24007362     0.93060
C2255       C  0.59265377  0.83920890  0.26309033     0.92200
C2256       C  0.65508902  0.83951575  0.23991104     0.84350
C2257       C  0.59327310  0.91376446  0.26351676     0.90620
N2258       N  0.94713944  0.96063190  0.28582118    -0.27480
N2259       N  0.96077747  0.95980539  0.27284020    -0.35340
C2260       C  0.94732631  0.94507521  0.26250284     0.00860
C2261       C  0.92409492  0.93595170  0.26926658     0.06880
C2262       C  0.92442181  0.94631651  0.28405575    -0.06210
H2263       H  0.95511803  0.93936416  0.25138959     0.07550
H2264       H  0.91020668  0.94225451  0.29313592     0.08750
Cu2265     Cu  0.50042201  0.97025965  0.27110575     0.44170
Cu2266     Cu  0.96316952  0.97793098  0.30555025     0.41990
Cu2267     Cu  0.53653994  0.97544409  0.30621208     0.43880
N2268       N  0.53946433  0.95845504  0.27332165    -0.34870
N2269       N  0.55259768  0.95848002  0.28650664    -0.29120
C2270       C  0.57487481  0.94378463  0.28488740    -0.05220
C2271       C  0.57541255  0.93395619  0.26998647     0.06990
C2272       C  0.55277980  0.94379591  0.26300232     0.00790
H2273       H  0.58859548  0.93911685  0.29411327     0.08440
H2274       H  0.54526709  0.93871295  0.25169596     0.07520
N2275       N  0.51352454  0.49656662  0.32187597    -0.36320
N2276       N  0.98710525  0.49767641  0.32157340    -0.28500
C2277       C  0.97896359  0.51599659  0.33182374    -0.03740
C2278       C  0.50124385  0.52689963  0.33901938     0.04870
C2279       C  0.52277553  0.51408393  0.33234928     0.02970
H2280       H  0.95847677  0.52242968  0.33300478     0.08070
H2281       H  0.54374628  0.51834109  0.33428152     0.06910
N2282       N  0.69557185  0.79363734  0.21759123    -0.27480
N2283       N  0.70950432  0.79540812  0.23045624    -0.35340
C2284       C  0.69637446  0.81071372  0.24052491     0.00860
C2285       C  0.67306866  0.81922882  0.23367261     0.06880
C2286       C  0.67299966  0.80791136  0.21912881    -0.06210
H2287       H  0.70442610  0.81719524  0.25146889     0.07550
H2288       H  0.65861027  0.81123013  0.21004257     0.08750
Cu2289     Cu  0.74911535  0.78524097  0.23207948     0.44170
Cu2290     Cu  0.71116671  0.77497519  0.19837481     0.41990
Cu2291     Cu  0.78484861  0.77788040  0.19702423     0.43880
N2292       N  0.78825451  0.79703963  0.22946031    -0.34870
N2293       N  0.80125360  0.79639274  0.21625896    -0.29120
C2294       C  0.82373191  0.81123502  0.21759798    -0.05220
C2295       C  0.82453244  0.82175851  0.23234422     0.06990
C2296       C  0.80185906  0.81218905  0.23951181     0.00790
H2297       H  0.83750263  0.81536812  0.20830476     0.08440
H2298       H  0.79456860  0.81769611  0.25077201     0.07520
N2299       N  0.76103409  0.75481115  0.18251359    -0.36320
N2300       N  0.73462800  0.75352557  0.18318762    -0.28500
C2301       C  0.72590534  0.73413381  0.17372594    -0.03740
C2302       C  0.74776009  0.72279388  0.16656976     0.04870
C2303       C  0.76969098  0.73636325  0.17250147     0.02970
H2304       H  0.70529217  0.72762742  0.17298375     0.08070
H2305       H  0.79053235  0.73228709  0.17024695     0.06910
N2306       N  0.94495201  0.79414146  0.28390034    -0.27480
N2307       N  0.95878425  0.79567613  0.27100471    -0.35340
C2308       C  0.94596141  0.81146024  0.26101286     0.00860
C2309       C  0.92295450  0.82049428  0.26793632     0.06880
C2310       C  0.92274951  0.80899818  0.28243369    -0.06210
H2311       H  0.95402731  0.81779854  0.25006021     0.07550
H2312       H  0.90852681  0.81257076  0.29155117     0.08750
Cu2313     Cu  0.49800467  0.78420541  0.26915311     0.44170
Cu2314     Cu  0.96002007  0.77507257  0.30321506     0.41990
Cu2315     Cu  0.53360172  0.77509960  0.30407457     0.43880
N2316       N  0.53753211  0.79468231  0.27175898    -0.34870
N2317       N  0.55055186  0.79340953  0.28495623    -0.29120
C2318       C  0.57330640  0.80786186  0.28377424    -0.05220
C2319       C  0.57428025  0.81879318  0.26913252     0.06990
C2320       C  0.55141168  0.80983843  0.26185950     0.00790
H2321       H  0.58707928  0.81160837  0.29314303     0.08440
H2322       H  0.54412609  0.81592862  0.25068856     0.07520
N2323       N  0.50933375  0.75345589  0.31902294    -0.36320
N2324       N  0.98285144  0.75340820  0.31872287    -0.28500
C2325       C  0.97368090  0.73490625  0.32864833    -0.03740
C2326       C  0.49538036  0.72285922  0.33549196     0.04870
C2327       C  0.51762440  0.73497919  0.32913379     0.02970
H2328       H  0.95285207  0.72949769  0.33005868     0.08070
H2329       H  0.53828924  0.72963522  0.33102045     0.06910
N2330       N  0.69611532  0.96097854  0.21789655    -0.27480
N2331       N  0.70977777  0.95954699  0.23087875    -0.35340
C2332       C  0.69668212  0.94382007  0.24084597     0.00860
C2333       C  0.67363315  0.93468042  0.23386310     0.06880
C2334       C  0.67370568  0.94605491  0.21931270    -0.06210
H2335       H  0.70452857  0.93769490  0.25188350     0.07550
H2336       H  0.65942034  0.94250178  0.21017553     0.08750
Cu2337     Cu  0.74899834  0.97125359  0.23318388     0.44170
Cu2338     Cu  0.71145078  0.98071795  0.19871343     0.41990
Cu2339     Cu  0.78524468  0.98256229  0.19917240     0.43880
N2340       N  0.78846738  0.96100199  0.23097308    -0.34870
N2341       N  0.80183162  0.96308413  0.21794948    -0.29120
C2342       C  0.82446525  0.94874119  0.21910396    -0.05220
C2343       C  0.82500415  0.93706723  0.23356766     0.06990
C2344       C  0.80198491  0.94544007  0.24075107     0.00790
H2345       H  0.83849342  0.94565292  0.20982795     0.08440
H2346       H  0.79438174  0.93873506  0.25174134     0.07520
N2347       N  0.76134696  0.50506722  0.18458544    -0.36320
N2348       N  0.73490558  0.50421797  0.18415730    -0.28500
C2349       C  0.72619363  0.52275734  0.17415477    -0.03740
C2350       C  0.74814404  0.53636110  0.16822970     0.04870
C2351       C  0.77002556  0.52426985  0.17501410     0.02970
H2352       H  0.70535267  0.52615848  0.17158784     0.08070
H2353       H  0.79082930  0.52976078  0.17358074     0.06910
C2354       C  0.50210441  0.62768091  0.37477342    -0.02680
O2355       O  0.97586366  0.78567401  0.00168878    -0.73130
O2356       O  0.53219837  0.73893139  0.02030864    -0.74120
O2357       O  0.53263934  0.78614575  0.00225778    -0.62730
O2358       O  0.97520654  0.73844738  0.01963376    -0.71150
O2359       O  0.97608112  0.71494862  0.99799704    -0.70700
O2360       O  0.53322183  0.76255994  0.98064758    -0.61950
O2361       O  0.53276226  0.71544882  0.99866470    -0.74460
O2362       O  0.97632665  0.76212375  0.98006670    -0.73240
Cu2363     Cu  0.50396107  0.76318220  0.01171443     1.04560
Cu2364     Cu  0.50463079  0.73790163  0.98861390     1.04330
C2365       C  0.96721048  0.78137277  0.98807063     0.93060
C2366       C  0.54131658  0.71967552  0.01231544     0.92200
C2367       C  0.54189713  0.78197550  0.98878099     0.84350
C2368       C  0.96662858  0.71906442  0.01142081     0.90620
O2369       O  0.97508112  0.98805923  0.98005742    -0.73130
O2370       O  0.53185679  0.53595372  0.99788920    -0.74120
O2371       O  0.53204137  0.98860162  0.98014108    -0.62730
O2372       O  0.97517593  0.53541986  0.99779688    -0.71150
O2373       O  0.97496428  0.51210273  0.01950517    -0.70700
O2374       O  0.53197086  0.96526335  0.00184276    -0.61950
O2375       O  0.53192570  0.51259486  0.01958180    -0.74460
O2376       O  0.97522943  0.96471681  0.00175329    -0.73240
Cu2377     Cu  0.50353493  0.51286748  0.98822871     1.04560
Cu2378     Cu  0.50352438  0.98780483  0.01141365     1.04330
C2379       C  0.96620315  0.96875937  0.98820527     0.93060
C2380       C  0.54083121  0.53189287  0.01144671     0.92200
C2381       C  0.54099156  0.96948730  0.98831468     0.84350
C2382       C  0.96611266  0.53125330  0.01131843     0.90620
N2383       N  0.91986325  0.57199757  0.03330321    -0.27480
N2384       N  0.92154914  0.58549618  0.02029331    -0.35340
C2385       C  0.93701453  0.57222012  0.01037522     0.00860
C2386       C  0.94573069  0.54926280  0.01743897     0.06880
C2387       C  0.93437034  0.54954427  0.03197476    -0.06210
H2388       H  0.94336582  0.57992695  0.99933981     0.07550
H2389       H  0.93771213  0.53541657  0.04116824     0.08750
Cu2390     Cu  0.91086020  0.62476108  0.01790765     0.44170
Cu2391     Cu  0.90047234  0.58758350  0.05237614     0.41990
Cu2392     Cu  0.90001217  0.66129394  0.05176750     0.43880
N2393       N  0.92181513  0.66415422  0.02003921    -0.34870
N2394       N  0.91981903  0.67763648  0.03301773    -0.29120
C2395       C  0.93437041  0.70029261  0.03182556    -0.05220
C2396       C  0.94610496  0.70073048  0.01738388     0.06990
C2397       C  0.93755509  0.67762077  0.01024801     0.00790
H2398       H  0.93750037  0.71444980  0.04105556     0.08440
H2399       H  0.94418060  0.66998621  0.99926903     0.07520
N2400       N  0.87667021  0.63758831  0.06611177    -0.36320
N2401       N  0.87698217  0.61119965  0.06654455    -0.28500
C2402       C  0.85788089  0.60261199  0.07628316    -0.03740
C2403       C  0.84453007  0.62459651  0.08203024     0.04870
C2404       C  0.85728686  0.64637464  0.07545154     0.02970
H2405       H  0.85393350  0.58184423  0.07880889     0.08070
H2406       H  0.85219311  0.66716546  0.07689340     0.06910
N2407       N  0.58667728  0.92888221  0.96595002    -0.27480
N2408       N  0.58582611  0.91558494  0.97905027    -0.35340
C2409       C  0.57074295  0.92888857  0.98916468     0.00860
C2410       C  0.56144430  0.95164441  0.98211673     0.06880
C2411       C  0.57206628  0.95122032  0.96740754    -0.06210
H2412       H  0.56494849  0.92127184  0.00032058     0.07550
H2413       H  0.56797446  0.96505368  0.95816720     0.08750
Cu2414     Cu  0.59690155  0.87638987  0.98125879     0.44170
Cu2415     Cu  0.60441586  0.91296018  0.94647742     0.41990
Cu2416     Cu  0.60483668  0.83962966  0.94669769     0.43880
N2417       N  0.58618221  0.83690054  0.97928692    -0.34870
N2418       N  0.58720646  0.82344078  0.96624791    -0.29120
C2419       C  0.57286086  0.80074335  0.96782037    -0.05220
C2420       C  0.56223397  0.80024015  0.98254055     0.06990
C2421       C  0.57124583  0.82336006  0.98946906     0.00790
H2422       H  0.56892419  0.78667597  0.95864319     0.08440
H2423       H  0.56534055  0.83100556  0.00058205     0.07520
N2424       N  0.62562451  0.86325915  0.93103103    -0.36320
N2425       N  0.62545623  0.88968286  0.93095673    -0.28500
C2426       C  0.64364694  0.89857252  0.92076197    -0.03740
C2427       C  0.65571408  0.87676440  0.91410220     0.04870
C2428       C  0.64393127  0.85472784  0.92087553     0.02970
H2429       H  0.64900709  0.91932404  0.91912125     0.08070
H2430       H  0.64956638  0.83410299  0.91933160     0.06910
N2431       N  0.58685774  0.57279151  0.03391535    -0.27480
N2432       N  0.58534755  0.58662600  0.02103638    -0.35340
C2433       C  0.56997844  0.57340706  0.01090252     0.00860
C2434       C  0.56118583  0.55011624  0.01772322     0.06880
C2435       C  0.57238045  0.55018354  0.03231702    -0.06210
H2436       H  0.56371023  0.58133707  0.99991517     0.07550
H2437       H  0.56885733  0.53582790  0.04138977     0.08750
Cu2438     Cu  0.59628498  0.62610359  0.01946758     0.44170
Cu2439     Cu  0.60549061  0.58851333  0.05323847     0.41990
Cu2440     Cu  0.60391182  0.66197791  0.05466616     0.43880
N2441       N  0.58540143  0.66528604  0.02198833    -0.34870
N2442       N  0.58603675  0.67835171  0.03518041    -0.29120
C2443       C  0.57160082  0.70084810  0.03366178    -0.05220
C2444       C  0.56138225  0.70159035  0.01881578     0.06990
C2445       C  0.57070843  0.67885250  0.01178646     0.00790
H2446       H  0.56745624  0.71465975  0.04290129     0.08440
H2447       H  0.56523964  0.67145855  0.00051616     0.07520
N2448       N  0.62598959  0.63805710  0.06959409    -0.36320
N2449       N  0.62683259  0.61171256  0.06882506    -0.28500
C2450       C  0.64579229  0.60282085  0.07847348    -0.03740
C2451       C  0.65734017  0.62446051  0.08591904     0.04870
C2452       C  0.64427030  0.64647787  0.07990740     0.02970
H2453       H  0.65202507  0.58224604  0.07905747     0.08070
H2454       H  0.64871656  0.66723931  0.08224642     0.06910
N2455       N  0.92010172  0.92750035  0.96592943    -0.27480
N2456       N  0.92166309  0.91390225  0.97889463    -0.35340
C2457       C  0.93703078  0.92731456  0.98894025     0.00860
C2458       C  0.94581262  0.95048454  0.98198930     0.06880
C2459       C  0.93458106  0.95015493  0.96739673    -0.06210
H2460       H  0.94333977  0.91956450  0.99996299     0.07550
H2461       H  0.93809811  0.96434933  0.95823979     0.08750
Cu2462     Cu  0.91106769  0.87437745  0.98078117     0.44170
Cu2463     Cu  0.90144870  0.91135798  0.94666359     0.41990
Cu2464     Cu  0.90351629  0.83791142  0.94587870     0.43880
N2465       N  0.92248870  0.83530276  0.97845769    -0.34870
N2466       N  0.92175538  0.82203585  0.96533701    -0.29120
C2467       C  0.93645285  0.79972621  0.96685539    -0.05220
C2468       C  0.94696682  0.79930184  0.98162704     0.06990
C2469       C  0.93753856  0.82203881  0.98862526     0.00790
H2470       H  0.94054496  0.78582595  0.95765231     0.08440
H2471       H  0.94312063  0.82962045  0.99983609     0.07520
N2472       N  0.88157553  0.86119694  0.93062153    -0.36320
N2473       N  0.88060698  0.88756242  0.93106953    -0.28500
C2474       C  0.86207804  0.89598746  0.92100250    -0.03740
C2475       C  0.85095853  0.87399438  0.91367146     0.04870
C2476       C  0.86377901  0.85228156  0.92016745     0.02970
H2477       H  0.85588444  0.91652650  0.91994420     0.08070
H2478       H  0.85958123  0.83141738  0.91799402     0.06910
C2479       C  0.75417150  0.62874278  0.12564102    -0.02680
C2480       C  0.75252718  0.87349891  0.87558670    -0.02680
C2481       C  0.80854972  0.85273283  0.90478393    -0.09350
C2482       C  0.82726968  0.87346160  0.90334144     0.06850
C2483       C  0.82266574  0.89331842  0.89227415    -0.03110
C2484       C  0.79906778  0.89302010  0.88365104    -0.07560
C2485       C  0.77895724  0.87311132  0.88549693     0.05960
C2486       C  0.78505094  0.85201792  0.89600995    -0.02590
Br2487     Br  0.76239596  0.82164515  0.90003588    -0.02280
H2488       H  0.81191467  0.83703319  0.91310110     0.09880
H2489       H  0.79747772  0.90826540  0.87497736     0.07890
Br2490     Br  0.84879058  0.92020398  0.88723290    -0.02710
C2491       C  0.70006914  0.64551579  0.09426519    -0.09350
C2492       C  0.68158227  0.62463925  0.09584055     0.06850
C2493       C  0.68720379  0.60423709  0.10643429    -0.03110
C2494       C  0.71080016  0.60507592  0.11507722    -0.07560
C2495       C  0.72881111  0.62714611  0.11465709     0.05960
C2496       C  0.72330790  0.64692859  0.10321520    -0.02590
Br2497     Br  0.74525345  0.67766428  0.09909938    -0.02280
H2498       H  0.69653183  0.66101374  0.08584500     0.09880
H2499       H  0.71446984  0.58780596  0.12209770     0.07890
Br2500     Br  0.66270673  0.57550472  0.11075512    -0.02710
C2501       C  0.72817290  0.87680666  0.90204181    -0.09350
C2502       C  0.72661380  0.87509644  0.88577693     0.06850
C2503       C  0.70026929  0.87595457  0.87921712    -0.03110
C2504       C  0.67762182  0.87658315  0.88864502    -0.07560
C2505       C  0.67996781  0.87696004  0.90459269     0.05960
C2506       C  0.70540626  0.87744416  0.91129380    -0.02590
Br2507     Br  0.71008861  0.87915629  0.93316705    -0.02280
H2508       H  0.74707217  0.87833827  0.90793625     0.09880
H2509       H  0.65789906  0.87653669  0.88346620     0.07890
Br2510     Br  0.69235574  0.87475602  0.85758098    -0.02710
C2511       C  0.82059483  0.64662723  0.10332477    -0.09350
C2512       C  0.82164266  0.62553395  0.09284930     0.06850
C2513       C  0.80019451  0.60726261  0.09241006    -0.03110
C2514       C  0.77934558  0.60944138  0.10301949    -0.07560
C2515       C  0.77860358  0.62974380  0.11441595     0.05960
C2516       C  0.79926777  0.64979983  0.11353449    -0.02590
Br2517     Br  0.80029334  0.68457052  0.12304170    -0.02280
H2518       H  0.83641187  0.66151299  0.10325590     0.09880
H2519       H  0.76372785  0.59438118  0.10263661     0.07890
Br2520     Br  0.79704808  0.57958427  0.07725843    -0.02710
C2521       C  0.77080451  0.56118811  0.14729398    -0.09350
C2522       C  0.74907721  0.55926162  0.15734063     0.06850
C2523       C  0.73044604  0.58015035  0.15749564    -0.03110
C2524       C  0.73336836  0.60159510  0.14734952    -0.07560
C2525       C  0.75470085  0.60363233  0.13662417     0.05960
C2526       C  0.77458009  0.58304206  0.13747775    -0.02590
Br2527     Br  0.80995363  0.58285045  0.12861866    -0.02280
H2528       H  0.78580454  0.54570014  0.14746695     0.09880
H2529       H  0.71828694  0.61698291  0.14768312     0.07890
Br2530     Br  0.70161582  0.58223094  0.17196907    -0.02710
C2531       C  0.99868232  0.65096356  0.34813987    -0.09350
C2532       C  0.49966885  0.65302487  0.36439492     0.06850
C2533       C  0.49623771  0.67925004  0.37072800    -0.03110
C2534       C  0.49413496  0.70150806  0.36108354    -0.07560
C2535       C  0.49515397  0.69884142  0.34516263     0.05960
C2536       C  0.99698139  0.67337927  0.33867932    -0.02590
Br2537     Br  0.99707714  0.66819331  0.31682944    -0.02280
H2538       H  0.99867072  0.63194486  0.34240234     0.09880
H2539       H  0.49261236  0.72124703  0.36608225     0.07890
Br2540     Br  0.49751980  0.68786830  0.39227000    -0.02710
C2541       C  0.76856997  0.68015396  0.15866155    -0.09350
C2542       C  0.74819142  0.69879366  0.15662785     0.06850
C2543       C  0.72875544  0.69390499  0.14529569    -0.03110
C2544       C  0.73029702  0.67107093  0.13616467    -0.07560
C2545       C  0.75229366  0.65331854  0.13682981     0.05960
C2546       C  0.77075812  0.65767817  0.14919150    -0.02590
Br2547     Br  0.80132756  0.63597760  0.15350945    -0.02280
H2548       H  0.78327700  0.68323437  0.16765469     0.09880
H2549       H  0.71372927  0.66794639  0.12848169     0.07890
Br2550     Br  0.70055436  0.71849025  0.14065926    -0.02710
C2551       C  0.52246203  0.56991713  0.34658538    -0.09350
C2552       C  0.50222039  0.55098851  0.34893434     0.06850
C2553       C  0.98337937  0.55568361  0.36054257    -0.03110
C2554       C  0.98402288  0.57967287  0.36876002    -0.07560
C2555       C  0.50267869  0.60050047  0.36550488     0.05960
C2556       C  0.52333628  0.59390278  0.35481829    -0.02590
Br2557     Br  0.55381017  0.61584073  0.35018792    -0.02280
H2558       H  0.53768853  0.56625999  0.33801378     0.09880
H2559       H  0.96981046  0.58123686  0.37801179     0.07890
Br2560     Br  0.95742505  0.52929991  0.36660819    -0.02710
C2561       C  0.97808199  0.63024410  0.40150863    -0.09350
C2562       C  0.97633745  0.62859733  0.38522525     0.06850
C2563       C  0.94986647  0.62854486  0.37881703    -0.03110
C2564       C  0.92733428  0.62912507  0.38835685    -0.07560
C2565       C  0.92988560  0.63012606  0.40429670     0.05960
C2566       C  0.95542813  0.63084648  0.41086331    -0.02590
Br2567     Br  0.96042862  0.63294223  0.43270523    -0.02280
H2568       H  0.99697275  0.63231929  0.40735376     0.09880
H2569       H  0.90754407  0.62857580  0.38327135     0.07890
Br2570     Br  0.94180466  0.62614375  0.35723123    -0.02710
C2571       C  0.57187341  0.64348123  0.39445628    -0.09350
C2572       C  0.57342828  0.62243890  0.40494658     0.06850
C2573       C  0.55318828  0.60282522  0.40474539    -0.03110
C2574       C  0.53179997  0.60510202  0.39449900    -0.07560
C2575       C  0.52861584  0.62730467  0.38455204     0.05960
C2576       C  0.55053172  0.64606932  0.38413691    -0.02590
Br2577     Br  0.55700779  0.67448678  0.36958662    -0.02280
H2578       H  0.58797990  0.65804866  0.39409345     0.09880
H2579       H  0.51638900  0.58984416  0.39495945     0.07890
Br2580     Br  0.55149158  0.57380073  0.41910828    -0.02710
C2581       C  0.52880188  0.89368649  0.60373035    -0.09350
C2582       C  0.52743518  0.87293785  0.61483079     0.06850
C2583       C  0.54828338  0.85331105  0.61406025    -0.03110
C2584       C  0.56982794  0.85690538  0.60399441    -0.07560
C2585       C  0.57117682  0.87815787  0.59362618     0.05960
C2586       C  0.55001535  0.89648236  0.59338407    -0.02590
Br2587     Br  0.54730809  0.92463191  0.57852854    -0.02280
H2588       H  0.51304958  0.90837779  0.60322635     0.09880
H2589       H  0.58554251  0.84213522  0.60389691     0.07890
Br2590     Br  0.54936432  0.81848773  0.62351765    -0.02710
C2591       C  0.95919626  0.89556722  0.61485911    -0.09350
C2592       C  0.97732707  0.87384044  0.61466204     0.06850
C2593       C  0.97245686  0.85407008  0.60308113    -0.03110
C2594       C  0.94963762  0.85518165  0.59375775    -0.07560
C2595       C  0.93111064  0.87582872  0.59505712     0.05960
C2596       C  0.93607529  0.89612549  0.60585035    -0.02590
Br2597     Br  0.91124775  0.92434365  0.60994814    -0.02280
H2598       H  0.96231166  0.91276770  0.62205396     0.09880
H2599       H  0.94656931  0.83977516  0.58518838     0.07890
Br2600     Br  0.49510748  0.82418017  0.59891972    -0.02710
C2601       C  0.74995012  0.89704010  0.84883817    -0.09350
C2602       C  0.75123677  0.89906230  0.86510380     0.06850
C2603       C  0.75007079  0.92552905  0.87137665    -0.03110
C2604       C  0.74930322  0.94784735  0.86170998    -0.07560
C2605       C  0.74917753  0.94505968  0.84578290     0.05960
C2606       C  0.74922313  0.91948518  0.83934571    -0.02590
Br2607     Br  0.74801601  0.91417383  0.81751345    -0.02280
H2608       H  0.74872047  0.87801569  0.84311827     0.09880
H2609       H  0.74902718  0.96766870  0.86668756     0.07890
Br2610     Br  0.75085132  0.93404618  0.89293466    -0.02710
C2611       C  0.77372455  0.81687966  0.84702320    -0.09350
C2612       C  0.75274063  0.79841472  0.84838533     0.06850
C2613       C  0.73273059  0.80323356  0.85932772    -0.03110
C2614       C  0.73304655  0.82687852  0.86783059    -0.07560
C2615       C  0.75310078  0.84684248  0.86596193     0.05960
C2616       C  0.77445465  0.84042708  0.85568898    -0.02590
Br2617     Br  0.80515729  0.86274539  0.85181300    -0.02280
H2618       H  0.78958034  0.81331221  0.83882823     0.09880
H2619       H  0.71764962  0.82865032  0.87640862     0.07890
Br2620     Br  0.70553822  0.77739111  0.86432342    -0.02710
C2621       C  0.98230677  0.92594492  0.65704458    -0.09350
C2622       C  0.50199650  0.94569936  0.65541855     0.06850
C2623       C  0.52206202  0.94200416  0.64433135    -0.03110
C2624       C  0.52249412  0.91873142  0.63547404    -0.07560
C2625       C  0.50234531  0.89868645  0.63653526     0.05960
C2626       C  0.98216934  0.90286764  0.64796449    -0.02590
Br2627     Br  0.95228651  0.87929492  0.65161383    -0.02280
H2628       H  0.96678927  0.92835325  0.66559545     0.09880
H2629       H  0.53947827  0.91668506  0.62801261     0.07890
Br2630     Br  0.54866649  0.46869339  0.63977982    -0.02710
C2631       C  0.98147225  0.82896179  0.63608879    -0.09350
C2632       C  0.50172139  0.84886081  0.63711022     0.06850
C2633       C  0.52027333  0.84632415  0.64957907    -0.03110
C2634       C  0.51896168  0.82431806  0.65948791    -0.07560
C2635       C  0.49964658  0.80423041  0.65763140     0.05960
C2636       C  0.98079213  0.80673361  0.64574536    -0.02590
Br2637     Br  0.95456778  0.77965873  0.64117354    -0.02280
H2638       H  0.96545520  0.83020832  0.62788329     0.09880
H2639       H  0.53351828  0.82274978  0.66867098     0.07890
Br2640     Br  0.55015597  0.86994006  0.65318978    -0.02710
loop_ 
_geom_bond_atom_site_label_1 
_geom_bond_atom_site_label_2 
_geom_bond_distance 
_geom_bond_site_symmetry_2 
_ccdc_geom_bond_type 
O1           Cu9   2.007       .  S
O1           C11   1.278       .  A
O2           Cu9   2.014       .  S
O2           C12   1.277       .  A
O3           Cu9   2.005       .  S
O3           C13   1.278       .  A
O4           Cu9   2.011       .  S
O4           C14   1.277       .  A
O5          Cu10   2.006       .  S
O5           C14   1.278       .  A
O6          Cu10   2.012       .  S
O6           C13   1.277       .  A
O7          Cu10   2.004       .  S
O7           C12   1.278       .  A
O8          Cu10   2.011       .  S
O8           C11   1.277       .  A
Cu9         Cu10   2.376       .  S
C11         C104   1.468       .  S
C12          C42   1.469       .  S
C13          C80   1.468       .  S
C14          C66   1.468       .  S
O15         Cu23   2.003       .  S
O15          C25   1.278       .  A
O16         Cu23   2.009       .  S
O16          C26   1.276       .  A
O17         Cu23   2.007       .  S
O17          C27   1.279       .  A
O18         Cu23   2.012       .  S
O18          C28   1.277       .  A
O19         Cu24   2.007       .  S
O19          C28   1.278       .  A
O20         Cu24   2.014       .  S
O20          C27   1.277       .  A
O21         Cu24   2.008       .  S
O21          C26   1.278       .  A
O22         Cu24   2.013       .  S
O22          C25   1.277       .  A
Cu23        Cu24   2.376       .  S
C25          C32   1.468       .  S
C26         C114   1.468       .  S
C27          C56   1.470       .  S
C28          C90   1.469       .  S
N29          N30   1.320       .  A
N29          C33   1.348       .  A
N29         Cu37   2.074       .  S
N30          C31   1.340       .  A
N30       Cu1356   2.054       .  S
C31          C32   1.379       .  A
C31          H34   1.082       .  S
C32          C33   1.387       .  A
C33          H35   1.082       .  S
Cu36         N39   2.054       .  S
Cu36       N1350   2.054   1_455  S
Cu37         N47   2.076       .  S
Cu38         N40   2.081       .  S
Cu38         N46   2.083       .  S
N39          N40   1.321       .  A
N39          C43   1.340       .  A
N40          C41   1.349       .  A
C41          C42   1.388       .  A
C41          H44   1.082       .  S
C42          C43   1.378       .  A
C43          H45   1.082       .  S
N46        N1367   1.324   1_455  A
N46          C50   1.346       .  A
N47        N1366   1.324       .  A
N47          C48   1.344       .  A
C48        C1369   1.384       .  A
C48          H51   1.081       .  S
C49         C655   1.482       .  S
C49          C50   1.386   1_655  A
C49        C1368   1.384       .  A
C50          H52   1.082       .  S
N53          N54   1.321       .  A
N53          C57   1.350       .  A
N53         Cu61   2.087       .  S
N54          C55   1.340       .  A
N54       Cu1380   2.053       .  S
C55          C56   1.378       .  A
C55          H58   1.082       .  S
C56          C57   1.389       .  A
C57          H59   1.082       .  S
Cu60         N63   2.054   1_655  S
Cu60       N1374   2.053       .  S
Cu61        N731   2.089   1_545  S
Cu62         N64   2.074       .  S
Cu62        N730   2.077   1_545  S
N63          N64   1.320       .  A
N63          C67   1.341       .  A
N64          C65   1.348       .  A
C65          C66   1.387       .  A
C65          H68   1.082       .  S
C66          C67   1.379       .  A
C67          H69   1.082       .  S
N70        N1391   1.324   1_455  A
N70          C74   1.344       .  A
N70        Cu722   2.077       .  S
N71        N1390   1.324       .  A
N71          C72   1.347       .  A
N71        Cu721   2.089       .  S
C72        C1393   1.389       .  A
C72          H75   1.082       .  S
C73         C642   1.487       .  S
C73          C74   1.385       .  A
C73        C1392   1.389   1_455  A
C74          H76   1.081       .  S
N77          N78   1.320       .  A
N77          C81   1.348       .  A
N77         Cu85   2.077       .  S
N78          C79   1.341       .  A
N78         Cu84   2.054       .  S
C79          C80   1.379       .  A
C79          H82   1.082       .  S
C80          C81   1.387       .  A
C81          H83   1.082       .  S
Cu84         N87   2.055       .  S
Cu85         N95   2.079       .  S
Cu86         N88   2.080       .  S
Cu86         N94   2.082       .  S
N87          N88   1.321       .  A
N87          C91   1.340       .  A
N88          C89   1.349       .  A
C89          C90   1.387       .  A
C89          H92   1.082       .  S
C90          C91   1.379       .  A
C91          H93   1.082       .  S
N94          N95   1.323       .  A
N94          C98   1.345       .  A
N95          C96   1.344       .  A
C96          C97   1.386       .  A
C96          H99   1.081       .  S
C97         C632   1.485       .  S
C97          C98   1.387       .  A
C98         H100   1.082       .  S
N101        N102   1.321       .  A
N101        C105   1.348       .  A
N101       Cu109   2.080       .  S
N102        C103   1.341       .  A
N102       Cu108   2.054       .  S
C103        C104   1.378       .  A
C103        H106   1.082       .  S
C104        C105   1.387       .  A
C105        H107   1.082       .  S
Cu108       N111   2.054       .  S
Cu109       N779   2.081   1_545  S
Cu110       N112   2.078       .  S
Cu110       N778   2.080   1_545  S
N111        N112   1.321       .  A
N111        C115   1.341       .  A
N112        C113   1.348       .  A
C113        C114   1.387       .  A
C113        H116   1.082       .  S
C114        C115   1.379       .  A
C115        H117   1.082       .  S
N118        N119   1.325       .  A
N118        C122   1.345       .  A
N118       Cu770   2.080       .  S
N119        C120   1.346       .  A
N119       Cu769   2.081       .  S
C120        C121   1.381       .  A
C120        H123   1.082       .  S
C121        C625   1.470       .  S
C121        C122   1.380       .  A
C122        H124   1.082       .  S
C125        C602   1.578       .  S
C125        C645   1.582       .  S
C125        C652   1.565       .  S
C125       C1932   1.585   1_455  S
O126       Cu134   2.007       .  S
O126        C136   1.279       .  A
O127       Cu794   2.013   1_545  S
O127        C137   1.277       .  A
O128       Cu134   2.002       .  S
O128        C138   1.277       .  A
O129       Cu794   2.007   1_545  S
O129        C139   1.276       .  A
O130       Cu135   2.007       .  S
O130        C139   1.278       .  A
O131       Cu795   2.013       .  S
O131        C138   1.277       .  A
O132       Cu135   2.003       .  S
O132        C137   1.278       .  A
O133       Cu795   2.010       .  S
O133        C136   1.276       .  A
Cu134       O787   2.013       .  S
Cu134       O789   2.007       .  S
Cu134      Cu795   2.376       .  S
Cu135       O791   2.013   1_545  S
Cu135       O793   2.010   1_545  S
Cu135      Cu794   2.376   1_545  S
C136        C205   1.468       .  S
C137        C181   1.468       .  S
C138        C229   1.467       .  S
C139        C157   1.467       .  S
O140       Cu148   2.020       .  S
O140        C150   1.278       .  A
O141       Cu148   2.014       .  S
O141        C151   1.279       .  A
O142       Cu148   2.009       .  S
O142        C152   1.276       .  A
O143       Cu148   2.003       .  S
O143        C153   1.278       .  A
O144       Cu149   2.016       .  S
O144        C153   1.277       .  A
O145       Cu149   2.010       .  S
O145        C152   1.279       .  A
O146       Cu149   2.009       .  S
O146        C151   1.276       .  A
O147       Cu149   2.002       .  S
O147        C150   1.278       .  A
Cu148      Cu149   2.375       .  S
C150        C215   1.470       .  S
C151        C191   1.470       .  S
C152        C239   1.469       .  S
C153        C167   1.469       .  S
N154        N155   1.321       .  A
N154        C158   1.348       .  A
N154       Cu162   2.078       .  S
N155        C156   1.341       .  A
N155       Cu161   2.054       .  S
C156        C157   1.378       .  A
C156        H159   1.082       .  S
C157        C158   1.387       .  A
C158        H160   1.082       .  S
Cu161       N164   2.054       .  S
Cu162       N172   2.079       .  S
Cu163       N165   2.078       .  S
Cu163       N171   2.081       .  S
N164        N165   1.320       .  A
N164        C168   1.340       .  A
N165        C166   1.349       .  A
C166        C167   1.388       .  A
C166        H169   1.082       .  S
C167        C168   1.379       .  A
C168        H170   1.082       .  S
N171        N172   1.323       .  A
N171        C175   1.343       .  A
N172        C173   1.346       .  A
C173        C174   1.386       .  A
C173        H176   1.081       .  S
C174        C592   1.486       .  S
C174        C175   1.386       .  A
C175        H177   1.082       .  S
N178        N179   1.321       .  A
N178        C182   1.348       .  A
N178       Cu186   2.078       .  S
N179        C180   1.340       .  A
N179       Cu185   2.054       .  S
C180        C181   1.379       .  A
C180        H183   1.082       .  S
C181        C182   1.387       .  A
C182        H184   1.082       .  S
Cu185       N188   2.055       .  S
Cu186       N196   2.079       .  S
Cu187       N189   2.084       .  S
Cu187       N195   2.085       .  S
N188        N189   1.321       .  A
N188        C192   1.341       .  A
N189        C190   1.349       .  A
C190        C191   1.388       .  A
C190        H193   1.082       .  S
C191        C192   1.379       .  A
C192        H194   1.082       .  S
N195        N196   1.325       .  A
N195        C199   1.347       .  A
N196        C197   1.345       .  A
C197        C198   1.380       .  A
C197        H200   1.082       .  S
C198        C585   1.472       .  S
C198        C199   1.382       .  A
C199        H201   1.082       .  S
N202        N203   1.321       .  A
N202        C206   1.349       .  A
N202       Cu210   2.082       .  S
N203        C204   1.340       .  A
N203       Cu209   2.054       .  S
C204        C205   1.378       .  A
C204        H207   1.082       .  S
C205        C206   1.388       .  A
C206        H208   1.082       .  S
Cu209       N212   2.053       .  S
Cu210       N220   2.083       .  S
Cu211       N213   2.081       .  S
Cu211       N219   2.084       .  S
N212        N213   1.320       .  A
N212        C216   1.340       .  A
N213        C214   1.350       .  A
C214        C215   1.389       .  A
C214        H217   1.082       .  S
C215        C216   1.379       .  A
C216        H218   1.082       .  S
N219        N220   1.324       .  A
N219        C223   1.343       .  A
N220        C221   1.347       .  A
C221        C222   1.387       .  A
C221        H224   1.081       .  S
C222        C605   1.488       .  S
C222        C223   1.386       .  A
C223        H225   1.082       .  S
N226        N227   1.320       .  A
N226        C230   1.348       .  A
N226       Cu234   2.073       .  S
N227        C228   1.340       .  A
N227       Cu233   2.054       .  S
C228        C229   1.379       .  A
C228        H231   1.082       .  S
C229        C230   1.386       .  A
C230        H232   1.082       .  S
Cu233       N236   2.054       .  S
Cu234       N244   2.075       .  S
Cu235       N237   2.083       .  S
Cu235       N243   2.084       .  S
N236        N237   1.321       .  A
N236        C240   1.341       .  A
N237        C238   1.349       .  A
C238        C239   1.388       .  A
C238        H241   1.082       .  S
C239        C240   1.378       .  A
C240        H242   1.082       .  S
N243        N244   1.323       .  A
N243        C247   1.346       .  A
N244        C245   1.343       .  A
C245        C246   1.385       .  A
C245        H248   1.081       .  S
C246        C615   1.485       .  S
C246        C247   1.388       .  A
C247        H249   1.082       .  S
O250       Cu258   2.015       .  S
O250        C260   1.277       .  A
O251       Cu258   2.009       .  S
O251        C261   1.278       .  A
O252       Cu258   2.013       .  S
O252        C262   1.277       .  A
O253       Cu258   2.008       .  S
O253        C263   1.278       .  A
O254       Cu259   2.009       .  S
O254        C263   1.277       .  A
O255       Cu259   2.003       .  S
O255        C262   1.278       .  A
O256       Cu259   2.008       .  S
O256        C261   1.276       .  A
O257       Cu259   2.003       .  S
O257        C260   1.278       .  A
Cu258      Cu259   2.376       .  S
C260        C363   1.469       .  S
C261        C329   1.468       .  S
C262        C315   1.468       .  S
C263        C281   1.468       .  S
O264       Cu272   2.010       .  S
O264        C274   1.279       .  A
O265       Cu272   2.015       .  S
O265        C275   1.277       .  A
O266       Cu272   2.001       .  S
O266        C276   1.277       .  A
O267       Cu272   2.007       .  S
O267        C277   1.276       .  A
O268       Cu273   2.008       .  S
O268        C277   1.279       .  A
O269       Cu273   2.013       .  S
O269        C276   1.277       .  A
O270       Cu273   2.002       .  S
O270        C275   1.278       .  A
O271       Cu273   2.009       .  S
O271        C274   1.276       .  A
Cu272      Cu273   2.376       .  S
C274        C353   1.469       .  S
C275        C339   1.469       .  S
C276        C305   1.467       .  S
C277        C291   1.467       .  S
N278        N279   1.321       .  A
N278        C282   1.348       .  A
N278       Cu286   2.080       .  S
N279        C280   1.341       .  A
N279      Cu1605   2.053       .  S
C280        C281   1.379       .  A
C280        H283   1.082       .  S
C281        C282   1.387       .  A
C282        H284   1.082       .  S
Cu285       N288   2.054       .  S
Cu285      N1599   2.053   1_455  S
Cu286       N956   2.081       .  S
Cu287       N289   2.078       .  S
Cu287       N955   2.080       .  S
N288        N289   1.321       .  A
N288        C292   1.341       .  A
N289        C290   1.348       .  A
C290        C291   1.387       .  A
C290        H293   1.082       .  S
C291        C292   1.378       .  A
C292        H294   1.082       .  S
N295       N1616   1.323   1_455  A
N295        C299   1.345   1_565  A
N295       Cu947   2.080       .  S
N296       N1615   1.323       .  A
N296        C297   1.345   1_565  A
N296       Cu946   2.081       .  S
C297       C1618   1.386       .  A
C297        H300   1.082       .  S
C298        C572   1.484       .  S
C298        C299   1.386       .  A
C298       C1617   1.386   1_455  A
C299        H301   1.082       .  S
N302        N303   1.320       .  A
N302        C306   1.348       .  A
N302       Cu310   2.071       .  S
N303        C304   1.340       .  A
N303       Cu309   2.054       .  S
C304        C305   1.379       .  A
C304        H307   1.082       .  S
C305        C306   1.386       .  A
C306        H308   1.082       .  S
Cu309       N312   2.054       .  S
Cu310       N320   2.074       .  S
Cu311       N313   2.078       .  S
Cu311       N319   2.080       .  S
N312        N313   1.321       .  A
N312        C316   1.340       .  A
N313        C314   1.349       .  A
C314        C315   1.387       .  A
C314        H317   1.082       .  S
C315        C316   1.378       .  A
C316        H318   1.082       .  S
N319        N320   1.323       .  A
N319        C323   1.344       .  A
N320        C321   1.344       .  A
C321        C322   1.384       .  A
C321        H324   1.081       .  S
C322        C562   1.482       .  S
C322        C323   1.386       .  A
C323        H325   1.082       .  S
N326        N327   1.321       .  A
N326        C330   1.348       .  A
N326       Cu334   2.076       .  S
N327        C328   1.341       .  A
N327      Cu1653   2.055       .  S
C328        C329   1.379       .  A
C328        H331   1.082       .  S
C329        C330   1.387       .  A
C330        H332   1.082       .  S
Cu333       N336   2.054   1_655  S
Cu333      N1647   2.055       .  S
Cu334       N344   2.078       .  S
Cu335       N337   2.079       .  S
Cu335       N343   2.080       .  S
N336        N337   1.321       .  A
N336        C340   1.340       .  A
N337        C338   1.349       .  A
C338        C339   1.387       .  A
C338        H341   1.082       .  S
C339        C340   1.379       .  A
C340        H342   1.082       .  S
N343       N1664   1.325   1_455  A
N343        C347   1.345       .  A
N344       N1663   1.325       .  A
N344        C345   1.346       .  A
C345       C1666   1.380       .  A
C345        H348   1.082       .  S
C346        C555   1.469       .  S
C346        C347   1.380   1_655  A
C346       C1665   1.380       .  A
C347        H349   1.082       .  S
N350        N351   1.321       .  A
N350        C354   1.349       .  A
N350       Cu358   2.085       .  S
N351        C352   1.340       .  A
N351       Cu357   2.053       .  S
C352        C353   1.378       .  A
C352        H355   1.082       .  S
C353        C354   1.388       .  A
C354        H356   1.082       .  S
Cu357       N360   2.053       .  S
Cu358      N1028   2.086       .  S
Cu359       N361   2.078       .  S
Cu359      N1027   2.081       .  S
N360        N361   1.320       .  A
N360        C364   1.340       .  A
N361        C362   1.349       .  A
C362        C363   1.388       .  A
C362        H365   1.082       .  S
C363        C364   1.379       .  A
C364        H366   1.082       .  S
N367        N368   1.324       .  A
N367        C371   1.343       .  A
N367      Cu1019   2.081   1_545  S
N368        C369   1.347       .  A
N368      Cu1018   2.086   1_545  S
C369        C370   1.388       .  A
C369        H372   1.081       .  S
C370        C542   1.489       .  S
C370        C371   1.386       .  A
C371        H373   1.082       .  S
C374        C552   1.564   1_455  S
C374        C575   1.583       .  S
C374        C595   1.575       .  S
C374       C1902   1.579   1_455  S
O375      Cu1703   2.007       .  S
O375        C385   1.278   1_554  A
O376       Cu383   2.013       .  S
O376        C386   1.277       .  A
O377       Cu383   2.010       .  S
O377        C387   1.279   1_554  A
O378      Cu1703   2.015       .  S
O378        C388   1.277       .  A
O379      Cu1704   2.003       .  S
O379        C388   1.278   1_556  A
O380       Cu384   2.008       .  S
O380        C387   1.276       .  A
O381       Cu384   2.008       .  S
O381        C386   1.279   1_556  A
O382      Cu1704   2.013       .  S
O382        C385   1.277       .  A
Cu383      O1695   2.007   1_455  S
Cu383      O1698   2.015   1_455  S
Cu383      Cu384   2.376   1_554  S
Cu384      O1699   2.003   1_455  S
Cu384      O1702   2.013   1_455  S
C385        C488   1.469       .  S
C386        C464   1.470       .  S
C387        C440   1.468       .  S
C388        C416   1.468       .  S
O389      Cu2377   2.012       .  S
O389        C399   1.277       .  A
O390       Cu397   2.006       .  S
O390        C400   1.278   1_556  A
O391      Cu1057   2.009       .  S
O391        C401   1.277       .  A
O392      Cu1717   2.002       .  S
O392        C402   1.278   1_556  A
O393      Cu2378   2.012   1_545  S
O393        C402   1.277       .  A
O394       Cu398   2.005       .  S
O394        C401   1.278   1_554  A
O395      Cu1058   2.010   1_545  S
O395        C400   1.277       .  A
O396      Cu1718   2.005       .  S
O396        C399   1.278   1_554  A
Cu397      O2369   2.012   1_445  S
Cu397      O1051   2.009   1_545  S
Cu397      O1712   2.002   1_455  S
Cu397     Cu1058   2.376   1_546  S
Cu398      O2373   2.012   1_455  S
Cu398      O1055   2.010       .  S
Cu398      O1716   2.005   1_455  S
Cu398     Cu1057   2.376   1_554  S
C399        C478   1.469       .  S
C400        C454   1.468       .  S
C401        C430   1.467       .  S
C402        C406   1.467       .  S
N403        N404   1.321       .  A
N403        C407   1.349       .  A
N403       Cu411   2.078       .  S
N404        C405   1.340       .  A
N404       Cu410   2.054       .  S
C405        C406   1.378       .  A
C405        H408   1.082   1_554  S
C406        C407   1.387       .  A
C407        H409   1.082       .  S
Cu410       N413   2.054       .  S
Cu411       N421   2.080       .  S
Cu412       N414   2.075       .  S
Cu412       N420   2.078       .  S
N413        N414   1.320       .  A
N413        C417   1.340       .  A
N414        C415   1.349       .  A
C415        C416   1.387       .  A
C415        H418   1.082       .  S
C416        C417   1.379       .  A
C417        H419   1.082   1_554  S
N420        N421   1.324       .  A
N420        C424   1.343       .  A
N421        C422   1.346       .  A
C422        C423   1.386       .  A
C422        H425   1.081       .  S
C423        C532   1.484       .  S
C423        C424   1.385       .  A
C424        H426   1.082       .  S
N427        N428   1.321       .  A
N427        C431   1.348       .  A
N427       Cu435   2.075       .  S
N428        C429   1.340       .  A
N428       Cu434   2.054       .  S
C429        C430   1.379       .  A
C429        H432   1.082   1_556  S
C430        C431   1.386       .  A
C431        H433   1.082       .  S
Cu434       N437   2.054       .  S
Cu435       N445   2.077       .  S
Cu436       N438   2.079       .  S
Cu436       N444   2.081       .  S
N437        N438   1.321       .  A
N437        C441   1.341       .  A
N438        C439   1.348       .  A
C439        C440   1.387       .  A
C439        H442   1.082       .  S
C440        C441   1.379       .  A
C441        H443   1.082   1_556  S
N444        N445   1.325       .  A
N444        C448   1.345       .  A
N445        C446   1.345       .  A
C446        C447   1.380       .  A
C446        H449   1.082       .  S
C447        C525   1.469       .  S
C447        C448   1.381       .  A
C448        H450   1.082       .  S
N451        N452   1.320       .  A
N451        C455   1.348       .  A
N451       Cu459   2.073       .  S
N452        C453   1.341       .  A
N452       Cu458   2.054       .  S
C453        C454   1.379       .  A
C453        H456   1.082   1_554  S
C454        C455   1.387       .  A
C455        H457   1.082       .  S
Cu458       N461   2.054       .  S
Cu459       N469   2.075       .  S
Cu460       N462   2.086       .  S
Cu460       N468   2.088       .  S
N461        N462   1.321       .  A
N461        C465   1.340       .  A
N462        C463   1.350       .  A
C463        C464   1.389       .  A
C463        H466   1.082       .  S
C464        C465   1.378       .  A
C465        H467   1.082       .  S
N468        N469   1.323       .  A
N468        C472   1.346       .  A
N469        C470   1.344       .  A
C470        C471   1.385       .  A
C470        H473   1.081       .  S
C471        C512   1.487       .  S
C471        C472   1.389       .  A
C472        H474   1.082       .  S
N475        N476   1.320       .  A
N475        C479   1.349       .  A
N475       Cu483   2.078       .  S
N476        C477   1.341       .  A
N476       Cu482   2.054       .  S
C477        C478   1.379       .  A
C477        H480   1.082       .  S
C478        C479   1.387       .  A
C479        H481   1.082       .  S
Cu482       N485   2.054       .  S
Cu483       N493   2.080       .  S
Cu484       N486   2.083       .  S
Cu484       N492   2.084       .  S
N485        N486   1.321       .  A
N485        C489   1.340       .  A
N486        C487   1.349       .  A
C487        C488   1.388       .  A
C487        H490   1.082       .  S
C488        C489   1.378       .  A
C489        H491   1.082       .  S
N492        N493   1.323       .  A
N492        C496   1.346       .  A
N493        C494   1.344       .  A
C494        C495   1.386       .  A
C494        H497   1.081       .  S
C495        C502   1.486       .  S
C495        C496   1.387       .  A
C496        H498   1.082       .  S
C499        C515   1.589       .  S
C499        C535   1.566       .  S
C499        C545   1.581       .  S
C499        C565   1.573       .  S
C500        C505   1.577       .  S
C500        C522   1.574       .  S
C500        C622   1.575       .  S
C500        C635   1.577       .  S
C501        C502   1.400       .  A
C501        C506   1.401       .  A
C501        H508   1.083       .  S
C502        C503   1.405       .  A
C503        C504   1.398       .  A
C503       Br510   1.922       .  S
C504        C505   1.421       .  A
C504        H509   1.077       .  S
C505        C506   1.432       .  A
C506       Br507   1.924       .  S
C511        C512   1.399       .  A
C511        C516   1.399       .  A
C511        H518   1.083       .  S
C512        C513   1.406       .  A
C513        C514   1.399       .  A
C513       Br520   1.922       .  S
C514        C515   1.422       .  A
C514        H519   1.076       .  S
C515        C516   1.433       .  A
C516       Br517   1.920       .  S
C521        C522   1.419       .  A
C521        C526   1.396       .  A
C521        H528   1.077       .  S
C522        C523   1.436       .  A
C523        C524   1.400       .  A
C523       Br530   1.923       .  S
C524        C525   1.392       .  A
C524        H529   1.084       .  S
C525        C526   1.399       .  A
C526       Br527   1.918       .  S
C531        C532   1.397       .  A
C531        C536   1.399       .  A
C531        H538   1.084       .  S
C532        C533   1.406       .  A
C533        C534   1.398       .  A
C533       Br540   1.919       .  S
C534        C535   1.421       .  A
C534        H539   1.083       .  S
C535        C536   1.439       .  A
C536       Br537   1.929       .  S
C541        C542   1.398       .  A
C541        C546   1.401       .  A
C541        H548   1.084       .  S
C542        C543   1.407       .  A
C543        C544   1.398       .  A
C543       Br550   1.919       .  S
C544        C545   1.422       .  A
C544        H549   1.083       .  S
C545        C546   1.440       .  A
C546       Br547   1.931       .  S
C551        C556   1.396       .  A
C551       C1872   1.418       .  A
C551        H558   1.076       .  S
C552        C553   1.437       .  A
C552       C1871   1.418       .  A
C553        C554   1.401       .  A
C553       Br560   1.924       .  S
C554        C555   1.392       .  A
C554        H559   1.084       .  S
C555       C1876   1.399       .  A
C556       C1875   1.399       .  A
C556       Br557   1.918       .  S
C561        C562   1.399       .  A
C561        C566   1.401       .  A
C561        H568   1.083       .  S
C562        C563   1.404       .  A
C563        C564   1.396       .  A
C563       Br570   1.922       .  S
C564        C565   1.421       .  A
C564        H569   1.074       .  S
C565        C566   1.432       .  A
C566       Br567   1.920       .  S
C571        C572   1.398       .  A
C571        C576   1.400       .  A
C571        H578   1.083       .  S
C572       C1893   1.403   1_455  A
C573        C574   1.399       .  A
C573       C1892   1.403       .  A
C573       Br580   1.921       .  S
C574       C1895   1.424       .  A
C574        H579   1.078       .  S
C575        C576   1.431       .  A
C575       C1894   1.424   1_455  A
C576       Br577   1.917       .  S
C581        C582   1.421       .  A
C581        C586   1.397       .  A
C581        H588   1.077       .  S
C582        C583   1.436       .  A
C582       C1694   1.579       .  S
C583        C584   1.401       .  A
C583       Br590   1.923       .  S
C584        C585   1.393       .  A
C584        H589   1.084       .  S
C585        C586   1.399       .  A
C586       Br587   1.919       .  S
C591        C592   1.397       .  A
C591        C596   1.401       .  A
C591        H598   1.084       .  S
C592        C593   1.406       .  A
C593        C594   1.397       .  A
C593       Br600   1.919       .  S
C594        C595   1.420       .  A
C594        H599   1.083       .  S
C595        C596   1.440       .  A
C596       Br597   1.932       .  S
C601        C602   1.421       .  A
C601        C606   1.399       .  A
C601        H608   1.083       .  S
C602        C603   1.440       .  A
C603        C604   1.400       .  A
C603       Br610   1.931       .  S
C604        C605   1.397       .  A
C604        H609   1.084       .  S
C605        C606   1.407       .  A
C606       Br607   1.919       .  S
C611        C612   1.422       .  A
C611        C616   1.397       .  A
C611        H618   1.076       .  S
C612        C613   1.432       .  A
C612       C1445   1.585       .  S
C613        C614   1.401       .  A
C613      Br1940   1.920       .  S
C614        C615   1.399       .  A
C614        H619   1.083       .  S
C615        C616   1.405       .  A
C616       Br617   1.923       .  S
Br620      C1933   1.920       .  S
C621        C622   1.420       .  A
C621        C626   1.396       .  A
C621        H628   1.077       .  S
C622        C623   1.436       .  A
C623        C624   1.400       .  A
C623       Br630   1.923       .  S
C624        C625   1.392       .  A
C624        H629   1.084       .  S
C625        C626   1.399       .  A
C626       Br627   1.918       .  S
C631        C632   1.400       .  A
C631        C636   1.401       .  A
C631        H638   1.083       .  S
C632        C633   1.404       .  A
C633        C634   1.397       .  A
C633       Br640   1.922       .  S
C634        C635   1.421       .  A
C634        H639   1.077       .  S
C635        C636   1.432       .  A
C636       Br637   1.924       .  S
C641        C646   1.401       .  A
C641       C1962   1.399       .  A
C641        H648   1.083       .  S
C642        C643   1.406       .  A
C642       C1961   1.399   1_455  A
C643        C644   1.398       .  A
C643      Br1310   1.922       .  S
C644        C645   1.421       .  A
C644        H649   1.075       .  S
C645       C1966   1.434   1_455  A
C646       C1965   1.434       .  A
C646       Br647   1.926       .  S
Br650      C1303   1.922       .  S
C651        C656   1.396       .  A
C651       C1972   1.419       .  A
C651        H658   1.074       .  S
C652        C653   1.433       .  A
C652       C1971   1.419   1_455  A
C653        C654   1.401       .  A
C653       Br660   1.926       .  S
C654        C655   1.400   1_455  A
C654        H659   1.083       .  S
C655       C1976   1.405       .  A
C656       C1975   1.405       .  A
C656       Br657   1.922       .  S
O661       Cu669   2.007       .  S
O661        C671   1.278       .  A
O662       Cu669   2.014       .  S
O662        C672   1.277       .  A
O663       Cu669   2.005       .  S
O663        C673   1.278       .  A
O664       Cu669   2.011       .  S
O664        C674   1.277       .  A
O665       Cu670   2.006       .  S
O665        C674   1.278       .  A
O666       Cu670   2.012       .  S
O666        C673   1.277       .  A
O667       Cu670   2.004       .  S
O667        C672   1.278       .  A
O668       Cu670   2.011       .  S
O668        C671   1.277       .  A
Cu669      Cu670   2.376       .  S
C671        C764   1.468       .  S
C672        C702   1.469       .  S
C673        C740   1.468       .  S
C674        C726   1.468       .  S
O675       Cu683   2.003       .  S
O675        C685   1.278       .  A
O676       Cu683   2.009       .  S
O676        C686   1.276       .  A
O677       Cu683   2.007       .  S
O677        C687   1.279       .  A
O678       Cu683   2.012       .  S
O678        C688   1.277       .  A
O679       Cu684   2.007       .  S
O679        C688   1.278       .  A
O680       Cu684   2.014       .  S
O680        C687   1.277       .  A
O681       Cu684   2.008       .  S
O681        C686   1.278       .  A
O682       Cu684   2.013       .  S
O682        C685   1.277       .  A
Cu683      Cu684   2.376       .  S
C685        C692   1.468       .  S
C686        C774   1.468       .  S
C687        C716   1.470       .  S
C688        C750   1.469       .  S
N689        N690   1.320       .  A
N689        C693   1.348       .  A
N689       Cu697   2.074       .  S
N690        C691   1.340       .  A
N690      Cu2016   2.054       .  S
C691        C692   1.379       .  A
C691        H694   1.082       .  S
C692        C693   1.387       .  A
C693        H695   1.082       .  S
Cu696      N2010   2.054   1_455  S
Cu696       N699   2.054       .  S
Cu697       N707   2.076       .  S
Cu698       N700   2.081       .  S
Cu698       N706   2.083       .  S
N699        N700   1.321       .  A
N699        C703   1.340       .  A
N700        C701   1.349       .  A
C701        C702   1.388       .  A
C701        H704   1.082       .  S
C702        C703   1.378       .  A
C703        H705   1.082       .  S
N706       N2027   1.324   1_455  A
N706        C710   1.346       .  A
N707       N2026   1.324       .  A
N707        C708   1.344       .  A
C708       C2029   1.384       .  A
C708        H711   1.081       .  S
C709       C1315   1.482       .  S
C709       C2028   1.384       .  A
C709        C710   1.386   1_655  A
C710        H712   1.082       .  S
N713        N714   1.321       .  A
N713        C717   1.350       .  A
N713       Cu721   2.087       .  S
N714        C715   1.340       .  A
N714      Cu2040   2.053       .  S
C715        C716   1.378       .  A
C715        H718   1.082       .  S
C716        C717   1.389       .  A
C717        H719   1.082       .  S
Cu720      N2034   2.053       .  S
Cu720       N723   2.054   1_655  S
Cu722       N724   2.074       .  S
N723        N724   1.320       .  A
N723        C727   1.341       .  A
N724        C725   1.348       .  A
C725        C726   1.387       .  A
C725        H728   1.082       .  S
C726        C727   1.379       .  A
C727        H729   1.082       .  S
N730       N2051   1.324   1_455  A
N730        C734   1.344       .  A
N731       N2050   1.324       .  A
N731        C732   1.347       .  A
C732       C2053   1.389       .  A
C732        H735   1.082       .  S
C733       C1302   1.487       .  S
C733       C2052   1.389   1_455  A
C733        C734   1.385       .  A
C734        H736   1.081       .  S
N737        N738   1.320       .  A
N737        C741   1.348       .  A
N737       Cu745   2.077       .  S
N738        C739   1.341       .  A
N738       Cu744   2.054       .  S
C739        C740   1.379       .  A
C739        H742   1.082       .  S
C740        C741   1.387       .  A
C741        H743   1.082       .  S
Cu744       N747   2.055       .  S
Cu745       N755   2.079       .  S
Cu746       N748   2.080       .  S
Cu746       N754   2.082       .  S
N747        N748   1.321       .  A
N747        C751   1.340       .  A
N748        C749   1.349       .  A
C749        C750   1.387       .  A
C749        H752   1.082       .  S
C750        C751   1.379       .  A
C751        H753   1.082       .  S
N754        N755   1.323       .  A
N754        C758   1.345       .  A
N755        C756   1.344       .  A
C756        C757   1.386       .  A
C756        H759   1.081       .  S
C757       C1292   1.485       .  S
C757        C758   1.387       .  A
C758        H760   1.082       .  S
N761        N762   1.321       .  A
N761        C765   1.348       .  A
N761       Cu769   2.080       .  S
N762        C763   1.341       .  A
N762       Cu768   2.054       .  S
C763        C764   1.378       .  A
C763        H766   1.082       .  S
C764        C765   1.387       .  A
C765        H767   1.082       .  S
Cu768       N771   2.054       .  S
Cu770       N772   2.078       .  S
N771        N772   1.321       .  A
N771        C775   1.341       .  A
N772        C773   1.348       .  A
C773        C774   1.387       .  A
C773        H776   1.082       .  S
C774        C775   1.379       .  A
C775        H777   1.082       .  S
N778        N779   1.325       .  A
N778        C782   1.345       .  A
N779        C780   1.346       .  A
C780        C781   1.381       .  A
C780        H783   1.082       .  S
C781       C1285   1.470       .  S
C781        C782   1.380       .  A
C782        H784   1.082       .  S
C785       C1262   1.578       .  S
C785       C2592   1.585   1_455  S
C785       C1305   1.582       .  S
C785       C1312   1.565       .  S
O786       Cu794   2.007       .  S
O786        C796   1.279       .  A
O787        C797   1.277       .  A
O788       Cu794   2.002       .  S
O788        C798   1.277       .  A
O789        C799   1.276       .  A
O790       Cu795   2.007       .  S
O790        C799   1.278       .  A
O791        C798   1.277       .  A
O792       Cu795   2.003       .  S
O792        C797   1.278       .  A
O793        C796   1.276       .  A
C796        C865   1.468       .  S
C797        C841   1.468       .  S
C798        C889   1.467       .  S
C799        C817   1.467       .  S
O800       Cu808   2.020       .  S
O800        C810   1.278       .  A
O801       Cu808   2.014       .  S
O801        C811   1.279       .  A
O802       Cu808   2.009       .  S
O802        C812   1.276       .  A
O803       Cu808   2.003       .  S
O803        C813   1.278       .  A
O804       Cu809   2.016       .  S
O804        C813   1.277       .  A
O805       Cu809   2.010       .  S
O805        C812   1.279       .  A
O806       Cu809   2.009       .  S
O806        C811   1.276       .  A
O807       Cu809   2.002       .  S
O807        C810   1.278       .  A
Cu808      Cu809   2.375       .  S
C810        C875   1.470       .  S
C811        C851   1.470       .  S
C812        C899   1.469       .  S
C813        C827   1.469       .  S
N814        N815   1.321       .  A
N814        C818   1.348       .  A
N814       Cu822   2.078       .  S
N815        C816   1.341       .  A
N815       Cu821   2.054       .  S
C816        C817   1.378       .  A
C816        H819   1.082       .  S
C817        C818   1.387       .  A
C818        H820   1.082       .  S
Cu821       N824   2.054       .  S
Cu822       N832   2.079       .  S
Cu823       N825   2.078       .  S
Cu823       N831   2.081       .  S
N824        N825   1.320       .  A
N824        C828   1.340       .  A
N825        C826   1.349       .  A
C826        C827   1.388       .  A
C826        H829   1.082       .  S
C827        C828   1.379       .  A
C828        H830   1.082       .  S
N831        N832   1.323       .  A
N831        C835   1.343       .  A
N832        C833   1.346       .  A
C833        C834   1.386       .  A
C833        H836   1.081       .  S
C834       C1252   1.486       .  S
C834        C835   1.386       .  A
C835        H837   1.082       .  S
N838        N839   1.321       .  A
N838        C842   1.348       .  A
N838       Cu846   2.078       .  S
N839        C840   1.340       .  A
N839       Cu845   2.054       .  S
C840        C841   1.379       .  A
C840        H843   1.082       .  S
C841        C842   1.387       .  A
C842        H844   1.082       .  S
Cu845       N848   2.055       .  S
Cu846       N856   2.079       .  S
Cu847       N849   2.084       .  S
Cu847       N855   2.085       .  S
N848        N849   1.321       .  A
N848        C852   1.341       .  A
N849        C850   1.349       .  A
C850        C851   1.388       .  A
C850        H853   1.082       .  S
C851        C852   1.379       .  A
C852        H854   1.082       .  S
N855        N856   1.325       .  A
N855        C859   1.347       .  A
N856        C857   1.345       .  A
C857        C858   1.380       .  A
C857        H860   1.082       .  S
C858       C1245   1.472       .  S
C858        C859   1.382       .  A
C859        H861   1.082       .  S
N862        N863   1.321       .  A
N862        C866   1.349       .  A
N862       Cu870   2.082       .  S
N863        C864   1.340       .  A
N863       Cu869   2.054       .  S
C864        C865   1.378       .  A
C864        H867   1.082       .  S
C865        C866   1.388       .  A
C866        H868   1.082       .  S
Cu869       N872   2.053       .  S
Cu870       N880   2.083       .  S
Cu871       N873   2.081       .  S
Cu871       N879   2.084       .  S
N872        N873   1.320       .  A
N872        C876   1.340       .  A
N873        C874   1.350       .  A
C874        C875   1.389       .  A
C874        H877   1.082       .  S
C875        C876   1.379       .  A
C876        H878   1.082       .  S
N879        N880   1.324       .  A
N879        C883   1.343       .  A
N880        C881   1.347       .  A
C881        C882   1.387       .  A
C881        H884   1.081       .  S
C882       C1265   1.488       .  S
C882        C883   1.386       .  A
C883        H885   1.082       .  S
N886        N887   1.320       .  A
N886        C890   1.348       .  A
N886       Cu894   2.072       .  S
N887        C888   1.340       .  A
N887       Cu893   2.054       .  S
C888        C889   1.379       .  A
C888        H891   1.082       .  S
C889        C890   1.386       .  A
C890        H892   1.082       .  S
Cu893       N896   2.054       .  S
Cu894       N904   2.075       .  S
Cu895       N897   2.083       .  S
Cu895       N903   2.084       .  S
N896        N897   1.321       .  A
N896        C900   1.341       .  A
N897        C898   1.349       .  A
C898        C899   1.388       .  A
C898        H901   1.082       .  S
C899        C900   1.378       .  A
C900        H902   1.082       .  S
N903        N904   1.323       .  A
N903        C907   1.346       .  A
N904        C905   1.343       .  A
C905        C906   1.385       .  A
C905        H908   1.081       .  S
C906       C1275   1.485       .  S
C906        C907   1.388       .  A
C907        H909   1.082       .  S
O910       Cu918   2.015       .  S
O910        C920   1.277       .  A
O911       Cu918   2.009       .  S
O911        C921   1.278       .  A
O912       Cu918   2.013       .  S
O912        C922   1.277       .  A
O913       Cu918   2.008       .  S
O913        C923   1.278       .  A
O914       Cu919   2.009       .  S
O914        C923   1.277       .  A
O915       Cu919   2.003       .  S
O915        C922   1.278       .  A
O916       Cu919   2.008       .  S
O916        C921   1.276       .  A
O917       Cu919   2.003       .  S
O917        C920   1.278       .  A
Cu918      Cu919   2.376       .  S
C920       C1023   1.469       .  S
C921        C989   1.468       .  S
C922        C975   1.468       .  S
C923        C941   1.468       .  S
O924       Cu932   2.010       .  S
O924        C934   1.279       .  A
O925       Cu932   2.015       .  S
O925        C935   1.277       .  A
O926       Cu932   2.001       .  S
O926        C936   1.277       .  A
O927       Cu932   2.007       .  S
O927        C937   1.276       .  A
O928       Cu933   2.008       .  S
O928        C937   1.279       .  A
O929       Cu933   2.013       .  S
O929        C936   1.277       .  A
O930       Cu933   2.002       .  S
O930        C935   1.278       .  A
O931       Cu933   2.009       .  S
O931        C934   1.276       .  A
Cu932      Cu933   2.376       .  S
C934       C1013   1.469       .  S
C935        C999   1.469       .  S
C936        C965   1.467       .  S
C937        C951   1.467       .  S
N938        N939   1.321       .  A
N938        C942   1.348       .  A
N938       Cu946   2.080       .  S
N939        C940   1.341       .  A
N939      Cu2265   2.053       .  S
C940        C941   1.379       .  A
C940        H943   1.082       .  S
C941        C942   1.387       .  A
C942        H944   1.082       .  S
Cu945      N2259   2.053   1_455  S
Cu945       N948   2.054       .  S
Cu947       N949   2.078       .  S
N948        N949   1.321       .  A
N948        C952   1.341       .  A
N949        C950   1.348       .  A
C950        C951   1.387       .  A
C950        H953   1.082       .  S
C951        C952   1.378       .  A
C952        H954   1.082       .  S
N955       N2276   1.323   1_455  A
N955        C959   1.345       .  A
N956       N2275   1.323       .  A
N956        C957   1.345       .  A
C957       C2278   1.386       .  A
C957        H960   1.082       .  S
C958       C1232   1.484       .  S
C958       C2277   1.386   1_455  A
C958        C959   1.386       .  A
C959        H961   1.082       .  S
N962        N963   1.320       .  A
N962        C966   1.348       .  A
N962       Cu970   2.071       .  S
N963        C964   1.340       .  A
N963       Cu969   2.054       .  S
C964        C965   1.379       .  A
C964        H967   1.082       .  S
C965        C966   1.386       .  A
C966        H968   1.082       .  S
Cu969       N972   2.054       .  S
Cu970       N980   2.074       .  S
Cu971       N973   2.078       .  S
Cu971       N979   2.080       .  S
N972        N973   1.321       .  A
N972        C976   1.340       .  A
N973        C974   1.349       .  A
C974        C975   1.387       .  A
C974        H977   1.082       .  S
C975        C976   1.378       .  A
C976        H978   1.082       .  S
N979        N980   1.323       .  A
N979        C983   1.344       .  A
N980        C981   1.344       .  A
C981        C982   1.384       .  A
C981        H984   1.081       .  S
C982       C1222   1.482       .  S
C982        C983   1.386       .  A
C983        H985   1.082       .  S
N986        N987   1.321       .  A
N986        C990   1.348       .  A
N986       Cu994   2.076       .  S
N987        C988   1.341       .  A
N987      Cu2313   2.055       .  S
C988        C989   1.379       .  A
C988        H991   1.082       .  S
C989        C990   1.387       .  A
C990        H992   1.082       .  S
Cu993      N2307   2.055       .  S
Cu993       N996   2.054   1_655  S
Cu994      N1004   2.078       .  S
Cu995       N997   2.079       .  S
Cu995      N1003   2.080       .  S
N996        N997   1.321       .  A
N996       C1000   1.340       .  A
N997        C998   1.349       .  A
C998        C999   1.387       .  A
C998       H1001   1.082       .  S
C999       C1000   1.379       .  A
C1000      H1002   1.082       .  S
N1003      N2324   1.325   1_455  A
N1003      C1007   1.345       .  A
N1004      N2323   1.325       .  A
N1004      C1005   1.346       .  A
C1005      C2326   1.380       .  A
C1005      H1008   1.082       .  S
C1006      C1215   1.469       .  S
C1006      C2325   1.380       .  A
C1006      C1007   1.380   1_655  A
C1007      H1009   1.082       .  S
N1010      N1011   1.321       .  A
N1010      C1014   1.349       .  A
N1010     Cu1018   2.085       .  S
N1011      C1012   1.340       .  A
N1011     Cu1017   2.053       .  S
C1012      C1013   1.378       .  A
C1012      H1015   1.082       .  S
C1013      C1014   1.388       .  A
C1014      H1016   1.082       .  S
Cu1017     N1020   2.053       .  S
Cu1019     N1021   2.078       .  S
N1020      N1021   1.320       .  A
N1020      C1024   1.340       .  A
N1021      C1022   1.349       .  A
C1022      C1023   1.388       .  A
C1022      H1025   1.082       .  S
C1023      C1024   1.379       .  A
C1024      H1026   1.082       .  S
N1027      N1028   1.324       .  A
N1027      C1031   1.343       .  A
N1028      C1029   1.347       .  A
C1029      C1030   1.388       .  A
C1029      H1032   1.081       .  S
C1030      C1202   1.489       .  S
C1030      C1031   1.386       .  A
C1031      H1033   1.082       .  S
C1034      C1212   1.564   1_455  S
C1034      C1235   1.583       .  S
C1034      C2562   1.579   1_455  S
C1034      C1255   1.575       .  S
O1035     Cu2363   2.007       .  S
O1035      C1045   1.278   1_554  A
O1036     Cu1043   2.013       .  S
O1036      C1046   1.277       .  A
O1037     Cu1043   2.010       .  S
O1037      C1047   1.279   1_554  A
O1038     Cu2363   2.015       .  S
O1038      C1048   1.277       .  A
O1039     Cu2364   2.003       .  S
O1039      C1048   1.278   1_556  A
O1040     Cu1044   2.008       .  S
O1040      C1047   1.276       .  A
O1041     Cu1044   2.008       .  S
O1041      C1046   1.279   1_556  A
O1042     Cu2364   2.013       .  S
O1042      C1045   1.277       .  A
Cu1043     O2355   2.007   1_455  S
Cu1043     O2358   2.015   1_455  S
Cu1043    Cu1044   2.376   1_554  S
Cu1044     O2359   2.003   1_455  S
Cu1044     O2362   2.013   1_455  S
C1045      C1148   1.469       .  S
C1046      C1124   1.470       .  S
C1047      C1100   1.468       .  S
C1048      C1076   1.468       .  S
O1049     Cu1717   2.012   1_565  S
O1049      C1059   1.277       .  A
O1050     Cu1057   2.006       .  S
O1050      C1060   1.278   1_556  A
O1051      C1061   1.277       .  A
O1052     Cu2377   2.002       .  S
O1052      C1062   1.278   1_556  A
O1053     Cu1718   2.012       .  S
O1053      C1062   1.277       .  A
O1054     Cu1058   2.005       .  S
O1054      C1061   1.278   1_554  A
O1055      C1060   1.277       .  A
O1056     Cu2378   2.005       .  S
O1056      C1059   1.278   1_554  A
Cu1057     O1709   2.012   1_455  S
Cu1057     O2372   2.002   1_455  S
Cu1058     O1713   2.012   1_465  S
Cu1058     O2376   2.005   1_455  S
C1059      C1138   1.469       .  S
C1060      C1114   1.468       .  S
C1061      C1090   1.467       .  S
C1062      C1066   1.467       .  S
N1063      N1064   1.321       .  A
N1063      C1067   1.349       .  A
N1063     Cu1071   2.078       .  S
N1064      C1065   1.340       .  A
N1064     Cu1070   2.054       .  S
C1065      C1066   1.378       .  A
C1065      H1068   1.082   1_554  S
C1066      C1067   1.387       .  A
C1067      H1069   1.082       .  S
Cu1070     N1073   2.054       .  S
Cu1071     N1081   2.079       .  S
Cu1072     N1074   2.075       .  S
Cu1072     N1080   2.078       .  S
N1073      N1074   1.320       .  A
N1073      C1077   1.340       .  A
N1074      C1075   1.349       .  A
C1075      C1076   1.387       .  A
C1075      H1078   1.082       .  S
C1076      C1077   1.379       .  A
C1077      H1079   1.082   1_554  S
N1080      N1081   1.324       .  A
N1080      C1084   1.342       .  A
N1081      C1082   1.346       .  A
C1082      C1083   1.386       .  A
C1082      H1085   1.081       .  S
C1083      C1192   1.484       .  S
C1083      C1084   1.385       .  A
C1084      H1086   1.082       .  S
N1087      N1088   1.321       .  A
N1087      C1091   1.348       .  A
N1087     Cu1095   2.075       .  S
N1088      C1089   1.340       .  A
N1088     Cu1094   2.054       .  S
C1089      C1090   1.379       .  A
C1089      H1092   1.082   1_556  S
C1090      C1091   1.386       .  A
C1091      H1093   1.082       .  S
Cu1094     N1097   2.054       .  S
Cu1095     N1105   2.077       .  S
Cu1096     N1098   2.079       .  S
Cu1096     N1104   2.081       .  S
N1097      N1098   1.321       .  A
N1097      C1101   1.341       .  A
N1098      C1099   1.348       .  A
C1099      C1100   1.387       .  A
C1099      H1102   1.082       .  S
C1100      C1101   1.379       .  A
C1101      H1103   1.082   1_556  S
N1104      N1105   1.325       .  A
N1104      C1108   1.345       .  A
N1105      C1106   1.345       .  A
C1106      C1107   1.380       .  A
C1106      H1109   1.082       .  S
C1107      C1185   1.469       .  S
C1107      C1108   1.381       .  A
C1108      H1110   1.082       .  S
N1111      N1112   1.320       .  A
N1111      C1115   1.348       .  A
N1111     Cu1119   2.073       .  S
N1112      C1113   1.341       .  A
N1112     Cu1118   2.054       .  S
C1113      C1114   1.379       .  A
C1113      H1116   1.082   1_554  S
C1114      C1115   1.387       .  A
C1115      H1117   1.082       .  S
Cu1118     N1121   2.054       .  S
Cu1119     N1129   2.075       .  S
Cu1120     N1122   2.086       .  S
Cu1120     N1128   2.088       .  S
N1121      N1122   1.321       .  A
N1121      C1125   1.340       .  A
N1122      C1123   1.350       .  A
C1123      C1124   1.389       .  A
C1123      H1126   1.082       .  S
C1124      C1125   1.378       .  A
C1125      H1127   1.082       .  S
N1128      N1129   1.323       .  A
N1128      C1132   1.346       .  A
N1129      C1130   1.344       .  A
C1130      C1131   1.385       .  A
C1130      H1133   1.081       .  S
C1131      C1172   1.487       .  S
C1131      C1132   1.389       .  A
C1132      H1134   1.082       .  S
N1135      N1136   1.320       .  A
N1135      C1139   1.349       .  A
N1135     Cu1143   2.078       .  S
N1136      C1137   1.341       .  A
N1136     Cu1142   2.054       .  S
C1137      C1138   1.379       .  A
C1137      H1140   1.082       .  S
C1138      C1139   1.387       .  A
C1139      H1141   1.082       .  S
Cu1142     N1145   2.054       .  S
Cu1143     N1153   2.080       .  S
Cu1144     N1146   2.083       .  S
Cu1144     N1152   2.084       .  S
N1145      N1146   1.321       .  A
N1145      C1149   1.340       .  A
N1146      C1147   1.349       .  A
C1147      C1148   1.388       .  A
C1147      H1150   1.082       .  S
C1148      C1149   1.378       .  A
C1149      H1151   1.082       .  S
N1152      N1153   1.323       .  A
N1152      C1156   1.346       .  A
N1153      C1154   1.344       .  A
C1154      C1155   1.386       .  A
C1154      H1157   1.081       .  S
C1155      C1162   1.486       .  S
C1155      C1156   1.387       .  A
C1156      H1158   1.082       .  S
C1159      C1175   1.589       .  S
C1159      C1195   1.566       .  S
C1159      C1205   1.581       .  S
C1159      C1225   1.573       .  S
C1160      C1165   1.577       .  S
C1160      C1182   1.574       .  S
C1160      C1282   1.575       .  S
C1160      C1295   1.577       .  S
C1161      C1162   1.400       .  A
C1161      C1166   1.401       .  A
C1161      H1168   1.083       .  S
C1162      C1163   1.405       .  A
C1163      C1164   1.398       .  A
C1163     Br1170   1.922       .  S
C1164      C1165   1.421       .  A
C1164      H1169   1.077       .  S
C1165      C1166   1.432       .  A
C1166     Br1167   1.924       .  S
C1171      C1172   1.399       .  A
C1171      C1176   1.399       .  A
C1171      H1178   1.083       .  S
C1172      C1173   1.406       .  A
C1173      C1174   1.399       .  A
C1173     Br1180   1.922       .  S
C1174      C1175   1.422       .  A
C1174      H1179   1.076       .  S
C1175      C1176   1.433       .  A
C1176     Br1177   1.920       .  S
C1181      C1182   1.419       .  A
C1181      C1186   1.396       .  A
C1181      H1188   1.077       .  S
C1182      C1183   1.436       .  A
C1183      C1184   1.400       .  A
C1183     Br1190   1.923       .  S
C1184      C1185   1.392       .  A
C1184      H1189   1.084       .  S
C1185      C1186   1.399       .  A
C1186     Br1187   1.918       .  S
C1191      C1192   1.397       .  A
C1191      C1196   1.399       .  A
C1191      H1198   1.084       .  S
C1192      C1193   1.406       .  A
C1193      C1194   1.398       .  A
C1193     Br1200   1.919       .  S
C1194      C1195   1.421       .  A
C1194      H1199   1.083       .  S
C1195      C1196   1.439       .  A
C1196     Br1197   1.929       .  S
C1201      C1202   1.398       .  A
C1201      C1206   1.401       .  A
C1201      H1208   1.084       .  S
C1202      C1203   1.407       .  A
C1203      C1204   1.398       .  A
C1203     Br1210   1.919       .  S
C1204      C1205   1.422       .  A
C1204      H1209   1.083       .  S
C1205      C1206   1.440       .  A
C1206     Br1207   1.931       .  S
C1211      C2532   1.418       .  A
C1211      C1216   1.396       .  A
C1211      H1218   1.076       .  S
C1212      C2531   1.418       .  A
C1212      C1213   1.437       .  A
C1213      C1214   1.401       .  A
C1213     Br1220   1.924       .  S
C1214      C1215   1.392       .  A
C1214      H1219   1.084       .  S
C1215      C2536   1.399       .  A
C1216      C2535   1.399       .  A
C1216     Br1217   1.918       .  S
C1221      C1222   1.399       .  A
C1221      C1226   1.401       .  A
C1221      H1228   1.083       .  S
C1222      C1223   1.404       .  A
C1223      C1224   1.396       .  A
C1223     Br1230   1.922       .  S
C1224      C1225   1.421       .  A
C1224      H1229   1.074       .  S
C1225      C1226   1.432       .  A
C1226     Br1227   1.920       .  S
C1231      C1232   1.398       .  A
C1231      C1236   1.400       .  A
C1231      H1238   1.083       .  S
C1232      C2553   1.403   1_455  A
C1233      C2552   1.403       .  A
C1233      C1234   1.399       .  A
C1233     Br1240   1.921       .  S
C1234      C2555   1.424       .  A
C1234      H1239   1.078       .  S
C1235      C2554   1.424   1_455  A
C1235      C1236   1.431       .  A
C1236     Br1237   1.917       .  S
C1241      C1242   1.421       .  A
C1241      C1246   1.397       .  A
C1241      H1248   1.077       .  S
C1242      C1243   1.436       .  A
C1242      C2354   1.579       .  S
C1243      C1244   1.401       .  A
C1243     Br1250   1.923       .  S
C1244      C1245   1.393       .  A
C1244      H1249   1.084       .  S
C1245      C1246   1.399       .  A
C1246     Br1247   1.919       .  S
C1251      C1252   1.397       .  A
C1251      C1256   1.401       .  A
C1251      H1258   1.084       .  S
C1252      C1253   1.406       .  A
C1253      C1254   1.397       .  A
C1253     Br1260   1.919       .  S
C1254      C1255   1.420       .  A
C1254      H1259   1.083       .  S
C1255      C1256   1.440       .  A
C1256     Br1257   1.932       .  S
C1261      C1262   1.421       .  A
C1261      C1266   1.399       .  A
C1261      H1268   1.083       .  S
C1262      C1263   1.440       .  A
C1263      C1264   1.400       .  A
C1263     Br1270   1.931       .  S
C1264      C1265   1.397       .  A
C1264      H1269   1.084       .  S
C1265      C1266   1.407       .  A
C1266     Br1267   1.919       .  S
C1271      C1272   1.422       .  A
C1271      C1276   1.397       .  A
C1271      H1278   1.076       .  S
C1272      C1273   1.432       .  A
C1272      C2105   1.585       .  S
C1273      C1274   1.401       .  A
C1273     Br2600   1.920       .  S
C1274      C1275   1.399       .  A
C1274      H1279   1.083       .  S
C1275      C1276   1.405       .  A
C1276     Br1277   1.923       .  S
Br1280     C2593   1.920       .  S
C1281      C1282   1.420       .  A
C1281      C1286   1.396       .  A
C1281      H1288   1.077       .  S
C1282      C1283   1.436       .  A
C1283      C1284   1.400       .  A
C1283     Br1290   1.923       .  S
C1284      C1285   1.392       .  A
C1284      H1289   1.084       .  S
C1285      C1286   1.399       .  A
C1286     Br1287   1.918       .  S
C1291      C1292   1.400       .  A
C1291      C1296   1.401       .  A
C1291      H1298   1.083       .  S
C1292      C1293   1.404       .  A
C1293      C1294   1.397       .  A
C1293     Br1300   1.922       .  S
C1294      C1295   1.421       .  A
C1294      H1299   1.077       .  S
C1295      C1296   1.432       .  A
C1296     Br1297   1.924       .  S
C1301      C2622   1.399       .  A
C1301      C1306   1.401       .  A
C1301      H1308   1.083       .  S
C1302      C2621   1.399   1_455  A
C1302      C1303   1.406       .  A
C1303      C1304   1.398       .  A
C1304      C1305   1.421       .  A
C1304      H1309   1.075       .  S
C1305      C2626   1.434   1_455  A
C1306      C2625   1.434       .  A
C1306     Br1307   1.926       .  S
C1311      C2632   1.419       .  A
C1311      C1316   1.396       .  A
C1311      H1318   1.074       .  S
C1312      C2631   1.419   1_455  A
C1312      C1313   1.433       .  A
C1313      C1314   1.401       .  A
C1313     Br1320   1.926       .  S
C1314      C1315   1.400   1_455  A
C1314      H1319   1.083       .  S
C1315      C2636   1.405       .  A
C1316      C2635   1.405       .  A
C1316     Br1317   1.922       .  S
O1321     Cu1329   2.007       .  S
O1321      C1331   1.278       .  A
O1322     Cu1329   2.014       .  S
O1322      C1332   1.277       .  A
O1323     Cu1329   2.005       .  S
O1323      C1333   1.278       .  A
O1324     Cu1329   2.011       .  S
O1324      C1334   1.277       .  A
O1325     Cu1330   2.006       .  S
O1325      C1334   1.278       .  A
O1326     Cu1330   2.012       .  S
O1326      C1333   1.277       .  A
O1327     Cu1330   2.004       .  S
O1327      C1332   1.278       .  A
O1328     Cu1330   2.011       .  S
O1328      C1331   1.277       .  A
Cu1329    Cu1330   2.376       .  S
C1331      C1424   1.468       .  S
C1332      C1362   1.469       .  S
C1333      C1400   1.468       .  S
C1334      C1386   1.468       .  S
O1335     Cu1343   2.003       .  S
O1335      C1345   1.278       .  A
O1336     Cu1343   2.009       .  S
O1336      C1346   1.276       .  A
O1337     Cu1343   2.007       .  S
O1337      C1347   1.279       .  A
O1338     Cu1343   2.012       .  S
O1338      C1348   1.277       .  A
O1339     Cu1344   2.007       .  S
O1339      C1348   1.278       .  A
O1340     Cu1344   2.014       .  S
O1340      C1347   1.277       .  A
O1341     Cu1344   2.008       .  S
O1341      C1346   1.278       .  A
O1342     Cu1344   2.013       .  S
O1342      C1345   1.277       .  A
Cu1343    Cu1344   2.376       .  S
C1345      C1352   1.468       .  S
C1346      C1434   1.468       .  S
C1347      C1376   1.470       .  S
C1348      C1410   1.469       .  S
N1349      N1350   1.320       .  A
N1349      C1353   1.348       .  A
N1349     Cu1357   2.074       .  S
N1350      C1351   1.340       .  A
C1351      C1352   1.379       .  A
C1351      H1354   1.082       .  S
C1352      C1353   1.387       .  A
C1353      H1355   1.082       .  S
Cu1356     N1359   2.054       .  S
Cu1357     N1367   2.076       .  S
Cu1358     N1360   2.081       .  S
Cu1358     N1366   2.083       .  S
N1359      N1360   1.321       .  A
N1359      C1363   1.340       .  A
N1360      C1361   1.349       .  A
C1361      C1362   1.388       .  A
C1361      H1364   1.082       .  S
C1362      C1363   1.378       .  A
C1363      H1365   1.082       .  S
N1366      C1370   1.346       .  A
N1367      C1368   1.344       .  A
C1368      H1371   1.081       .  S
C1369      C1975   1.482       .  S
C1369      C1370   1.386       .  A
C1370      H1372   1.082       .  S
N1373      N1374   1.321       .  A
N1373      C1377   1.350       .  A
N1373     Cu1381   2.087       .  S
N1374      C1375   1.340       .  A
C1375      C1376   1.378       .  A
C1375      H1378   1.082       .  S
C1376      C1377   1.389       .  A
C1377      H1379   1.082       .  S
Cu1380     N1383   2.054       .  S
Cu1381     N2051   2.089   1_545  S
Cu1382     N1384   2.074       .  S
Cu1382     N2050   2.077   1_545  S
N1383      N1384   1.320       .  A
N1383      C1387   1.341       .  A
N1384      C1385   1.348       .  A
C1385      C1386   1.387       .  A
C1385      H1388   1.082       .  S
C1386      C1387   1.379       .  A
C1387      H1389   1.082       .  S
N1390      C1394   1.344       .  A
N1390     Cu2042   2.077       .  S
N1391      C1392   1.347       .  A
N1391     Cu2041   2.089       .  S
C1392      H1395   1.082       .  S
C1393      C1962   1.487       .  S
C1393      C1394   1.385       .  A
C1394      H1396   1.081       .  S
N1397      N1398   1.320       .  A
N1397      C1401   1.348       .  A
N1397     Cu1405   2.077       .  S
N1398      C1399   1.341       .  A
N1398     Cu1404   2.054       .  S
C1399      C1400   1.379       .  A
C1399      H1402   1.082       .  S
C1400      C1401   1.387       .  A
C1401      H1403   1.082       .  S
Cu1404     N1407   2.055       .  S
Cu1405     N1415   2.079       .  S
Cu1406     N1408   2.080       .  S
Cu1406     N1414   2.082       .  S
N1407      N1408   1.321       .  A
N1407      C1411   1.340       .  A
N1408      C1409   1.349       .  A
C1409      C1410   1.387       .  A
C1409      H1412   1.082       .  S
C1410      C1411   1.379       .  A
C1411      H1413   1.082       .  S
N1414      N1415   1.323       .  A
N1414      C1418   1.345       .  A
N1415      C1416   1.344       .  A
C1416      C1417   1.386       .  A
C1416      H1419   1.081       .  S
C1417      C1952   1.485       .  S
C1417      C1418   1.387       .  A
C1418      H1420   1.082       .  S
N1421      N1422   1.321       .  A
N1421      C1425   1.348       .  A
N1421     Cu1429   2.080       .  S
N1422      C1423   1.341       .  A
N1422     Cu1428   2.054       .  S
C1423      C1424   1.378       .  A
C1423      H1426   1.082       .  S
C1424      C1425   1.387       .  A
C1425      H1427   1.082       .  S
Cu1428     N1431   2.054       .  S
Cu1429     N2099   2.081   1_545  S
Cu1430     N1432   2.078       .  S
Cu1430     N2098   2.080   1_545  S
N1431      N1432   1.321       .  A
N1431      C1435   1.341       .  A
N1432      C1433   1.348       .  A
C1433      C1434   1.387       .  A
C1433      H1436   1.082       .  S
C1434      C1435   1.379       .  A
C1435      H1437   1.082       .  S
N1438      N1439   1.325       .  A
N1438      C1442   1.345       .  A
N1438     Cu2090   2.080       .  S
N1439      C1440   1.346       .  A
N1439     Cu2089   2.081       .  S
C1440      C1441   1.381       .  A
C1440      H1443   1.082       .  S
C1441      C1945   1.470       .  S
C1441      C1442   1.380       .  A
C1442      H1444   1.082       .  S
C1445      C1922   1.578       .  S
C1445      C1965   1.582       .  S
C1445      C1972   1.565       .  S
O1446     Cu1454   2.007       .  S
O1446      C1456   1.279       .  A
O1447     Cu2114   2.013   1_545  S
O1447      C1457   1.277       .  A
O1448     Cu1454   2.002       .  S
O1448      C1458   1.277       .  A
O1449     Cu2114   2.007   1_545  S
O1449      C1459   1.276       .  A
O1450     Cu1455   2.007       .  S
O1450      C1459   1.278       .  A
O1451     Cu2115   2.013       .  S
O1451      C1458   1.277       .  A
O1452     Cu1455   2.003       .  S
O1452      C1457   1.278       .  A
O1453     Cu2115   2.010       .  S
O1453      C1456   1.276       .  A
Cu1454     O2107   2.013       .  S
Cu1454     O2109   2.007       .  S
Cu1454    Cu2115   2.376       .  S
Cu1455     O2111   2.013   1_545  S
Cu1455     O2113   2.010   1_545  S
Cu1455    Cu2114   2.376   1_545  S
C1456      C1525   1.468       .  S
C1457      C1501   1.468       .  S
C1458      C1549   1.467       .  S
C1459      C1477   1.467       .  S
O1460     Cu1468   2.020       .  S
O1460      C1470   1.278       .  A
O1461     Cu1468   2.014       .  S
O1461      C1471   1.279       .  A
O1462     Cu1468   2.009       .  S
O1462      C1472   1.276       .  A
O1463     Cu1468   2.003       .  S
O1463      C1473   1.278       .  A
O1464     Cu1469   2.016       .  S
O1464      C1473   1.277       .  A
O1465     Cu1469   2.010       .  S
O1465      C1472   1.279       .  A
O1466     Cu1469   2.009       .  S
O1466      C1471   1.276       .  A
O1467     Cu1469   2.002       .  S
O1467      C1470   1.278       .  A
Cu1468    Cu1469   2.375       .  S
C1470      C1535   1.470       .  S
C1471      C1511   1.470       .  S
C1472      C1559   1.469       .  S
C1473      C1487   1.469       .  S
N1474      N1475   1.321       .  A
N1474      C1478   1.348       .  A
N1474     Cu1482   2.078       .  S
N1475      C1476   1.341       .  A
N1475     Cu1481   2.054       .  S
C1476      C1477   1.378       .  A
C1476      H1479   1.082       .  S
C1477      C1478   1.387       .  A
C1478      H1480   1.082       .  S
Cu1481     N1484   2.054       .  S
Cu1482     N1492   2.079       .  S
Cu1483     N1485   2.078       .  S
Cu1483     N1491   2.081       .  S
N1484      N1485   1.320       .  A
N1484      C1488   1.340       .  A
N1485      C1486   1.349       .  A
C1486      C1487   1.388       .  A
C1486      H1489   1.082       .  S
C1487      C1488   1.379       .  A
C1488      H1490   1.082       .  S
N1491      N1492   1.323       .  A
N1491      C1495   1.343       .  A
N1492      C1493   1.346       .  A
C1493      C1494   1.386       .  A
C1493      H1496   1.081       .  S
C1494      C1912   1.486       .  S
C1494      C1495   1.386       .  A
C1495      H1497   1.082       .  S
N1498      N1499   1.321       .  A
N1498      C1502   1.348       .  A
N1498     Cu1506   2.078       .  S
N1499      C1500   1.340       .  A
N1499     Cu1505   2.054       .  S
C1500      C1501   1.379       .  A
C1500      H1503   1.082       .  S
C1501      C1502   1.387       .  A
C1502      H1504   1.082       .  S
Cu1505     N1508   2.055       .  S
Cu1506     N1516   2.079       .  S
Cu1507     N1509   2.084       .  S
Cu1507     N1515   2.085       .  S
N1508      N1509   1.321       .  A
N1508      C1512   1.341       .  A
N1509      C1510   1.349       .  A
C1510      C1511   1.388       .  A
C1510      H1513   1.082       .  S
C1511      C1512   1.379       .  A
C1512      H1514   1.082       .  S
N1515      N1516   1.325       .  A
N1515      C1519   1.347       .  A
N1516      C1517   1.345       .  A
C1517      C1518   1.380       .  A
C1517      H1520   1.082       .  S
C1518      C1905   1.472       .  S
C1518      C1519   1.382       .  A
C1519      H1521   1.082       .  S
N1522      N1523   1.321       .  A
N1522      C1526   1.349       .  A
N1522     Cu1530   2.082       .  S
N1523      C1524   1.340       .  A
N1523     Cu1529   2.054       .  S
C1524      C1525   1.378       .  A
C1524      H1527   1.082       .  S
C1525      C1526   1.388       .  A
C1526      H1528   1.082       .  S
Cu1529     N1532   2.053       .  S
Cu1530     N1540   2.083       .  S
Cu1531     N1533   2.081       .  S
Cu1531     N1539   2.084       .  S
N1532      N1533   1.320       .  A
N1532      C1536   1.340       .  A
N1533      C1534   1.350       .  A
C1534      C1535   1.389       .  A
C1534      H1537   1.082       .  S
C1535      C1536   1.379       .  A
C1536      H1538   1.082       .  S
N1539      N1540   1.324       .  A
N1539      C1543   1.343       .  A
N1540      C1541   1.347       .  A
C1541      C1542   1.387       .  A
C1541      H1544   1.081       .  S
C1542      C1925   1.488       .  S
C1542      C1543   1.386       .  A
C1543      H1545   1.082       .  S
N1546      N1547   1.320       .  A
N1546      C1550   1.348       .  A
N1546     Cu1554   2.073       .  S
N1547      C1548   1.340       .  A
N1547     Cu1553   2.054       .  S
C1548      C1549   1.379       .  A
C1548      H1551   1.082       .  S
C1549      C1550   1.386       .  A
C1550      H1552   1.082       .  S
Cu1553     N1556   2.054       .  S
Cu1554     N1564   2.075       .  S
Cu1555     N1557   2.083       .  S
Cu1555     N1563   2.084       .  S
N1556      N1557   1.321       .  A
N1556      C1560   1.341       .  A
N1557      C1558   1.349       .  A
C1558      C1559   1.388       .  A
C1558      H1561   1.082       .  S
C1559      C1560   1.378       .  A
C1560      H1562   1.082       .  S
N1563      N1564   1.323       .  A
N1563      C1567   1.346       .  A
N1564      C1565   1.343       .  A
C1565      C1566   1.385       .  A
C1565      H1568   1.081       .  S
C1566      C1935   1.485       .  S
C1566      C1567   1.388       .  A
C1567      H1569   1.082       .  S
O1570     Cu1578   2.015       .  S
O1570      C1580   1.277       .  A
O1571     Cu1578   2.009       .  S
O1571      C1581   1.278       .  A
O1572     Cu1578   2.013       .  S
O1572      C1582   1.277       .  A
O1573     Cu1578   2.008       .  S
O1573      C1583   1.278       .  A
O1574     Cu1579   2.009       .  S
O1574      C1583   1.277       .  A
O1575     Cu1579   2.003       .  S
O1575      C1582   1.278       .  A
O1576     Cu1579   2.008       .  S
O1576      C1581   1.276       .  A
O1577     Cu1579   2.003       .  S
O1577      C1580   1.278       .  A
Cu1578    Cu1579   2.376       .  S
C1580      C1683   1.469       .  S
C1581      C1649   1.468       .  S
C1582      C1635   1.468       .  S
C1583      C1601   1.468       .  S
O1584     Cu1592   2.010       .  S
O1584      C1594   1.279       .  A
O1585     Cu1592   2.015       .  S
O1585      C1595   1.277       .  A
O1586     Cu1592   2.001       .  S
O1586      C1596   1.277       .  A
O1587     Cu1592   2.007       .  S
O1587      C1597   1.276       .  A
O1588     Cu1593   2.008       .  S
O1588      C1597   1.279       .  A
O1589     Cu1593   2.013       .  S
O1589      C1596   1.277       .  A
O1590     Cu1593   2.002       .  S
O1590      C1595   1.278       .  A
O1591     Cu1593   2.009       .  S
O1591      C1594   1.276       .  A
Cu1592    Cu1593   2.376       .  S
C1594      C1673   1.469       .  S
C1595      C1659   1.469       .  S
C1596      C1625   1.467       .  S
C1597      C1611   1.467       .  S
N1598      N1599   1.321       .  A
N1598      C1602   1.348       .  A
N1598     Cu1606   2.080       .  S
N1599      C1600   1.341       .  A
C1600      C1601   1.379       .  A
C1600      H1603   1.082       .  S
C1601      C1602   1.387       .  A
C1602      H1604   1.082       .  S
Cu1605     N1608   2.054       .  S
Cu1606     N2276   2.081       .  S
Cu1607     N1609   2.078       .  S
Cu1607     N2275   2.080       .  S
N1608      N1609   1.321       .  A
N1608      C1612   1.341       .  A
N1609      C1610   1.348       .  A
C1610      C1611   1.387       .  A
C1610      H1613   1.082       .  S
C1611      C1612   1.378       .  A
C1612      H1614   1.082       .  S
N1615      C1619   1.345   1_565  A
N1615     Cu2267   2.080       .  S
N1616      C1617   1.345   1_565  A
N1616     Cu2266   2.081       .  S
C1617      H1620   1.082       .  S
C1618      C1892   1.484       .  S
C1618      C1619   1.386       .  A
C1619      H1621   1.082       .  S
N1622      N1623   1.320       .  A
N1622      C1626   1.348       .  A
N1622     Cu1630   2.071       .  S
N1623      C1624   1.340       .  A
N1623     Cu1629   2.054       .  S
C1624      C1625   1.379       .  A
C1624      H1627   1.082       .  S
C1625      C1626   1.386       .  A
C1626      H1628   1.082       .  S
Cu1629     N1632   2.054       .  S
Cu1630     N1640   2.074       .  S
Cu1631     N1633   2.078       .  S
Cu1631     N1639   2.080       .  S
N1632      N1633   1.321       .  A
N1632      C1636   1.340       .  A
N1633      C1634   1.349       .  A
C1634      C1635   1.387       .  A
C1634      H1637   1.082       .  S
C1635      C1636   1.378       .  A
C1636      H1638   1.082       .  S
N1639      N1640   1.323       .  A
N1639      C1643   1.344       .  A
N1640      C1641   1.344       .  A
C1641      C1642   1.384       .  A
C1641      H1644   1.081       .  S
C1642      C1882   1.482       .  S
C1642      C1643   1.386       .  A
C1643      H1645   1.082       .  S
N1646      N1647   1.321       .  A
N1646      C1650   1.348       .  A
N1646     Cu1654   2.076       .  S
N1647      C1648   1.341       .  A
C1648      C1649   1.379       .  A
C1648      H1651   1.082       .  S
C1649      C1650   1.387       .  A
C1650      H1652   1.082       .  S
Cu1653     N1656   2.054       .  S
Cu1654     N1664   2.078       .  S
Cu1655     N1657   2.079       .  S
Cu1655     N1663   2.080       .  S
N1656      N1657   1.321       .  A
N1656      C1660   1.340       .  A
N1657      C1658   1.349       .  A
C1658      C1659   1.387       .  A
C1658      H1661   1.082       .  S
C1659      C1660   1.379       .  A
C1660      H1662   1.082       .  S
N1663      C1667   1.345       .  A
N1664      C1665   1.346       .  A
C1665      H1668   1.082       .  S
C1666      C1875   1.469       .  S
C1666      C1667   1.380       .  A
C1667      H1669   1.082       .  S
N1670      N1671   1.321       .  A
N1670      C1674   1.349       .  A
N1670     Cu1678   2.085       .  S
N1671      C1672   1.340       .  A
N1671     Cu1677   2.053       .  S
C1672      C1673   1.378       .  A
C1672      H1675   1.082       .  S
C1673      C1674   1.388       .  A
C1674      H1676   1.082       .  S
Cu1677     N1680   2.053       .  S
Cu1678     N2348   2.086       .  S
Cu1679     N1681   2.078       .  S
Cu1679     N2347   2.081       .  S
N1680      N1681   1.320       .  A
N1680      C1684   1.340       .  A
N1681      C1682   1.349       .  A
C1682      C1683   1.388       .  A
C1682      H1685   1.082       .  S
C1683      C1684   1.379       .  A
C1684      H1686   1.082       .  S
N1687      N1688   1.324       .  A
N1687      C1691   1.343       .  A
N1687     Cu2339   2.081   1_545  S
N1688      C1689   1.347       .  A
N1688     Cu2338   2.086   1_545  S
C1689      C1690   1.388       .  A
C1689      H1692   1.081       .  S
C1690      C1862   1.489       .  S
C1690      C1691   1.386       .  A
C1691      H1693   1.082       .  S
C1694      C1872   1.564       .  S
C1694      C1895   1.583       .  S
C1694      C1915   1.575       .  S
O1695      C1705   1.278   1_554  A
O1696     Cu1703   2.013       .  S
O1696      C1706   1.277       .  A
O1697     Cu1703   2.010       .  S
O1697      C1707   1.279   1_554  A
O1698      C1708   1.277       .  A
O1699      C1708   1.278   1_556  A
O1700     Cu1704   2.008       .  S
O1700      C1707   1.276       .  A
O1701     Cu1704   2.008       .  S
O1701      C1706   1.279   1_556  A
O1702      C1705   1.277       .  A
Cu1703    Cu1704   2.376   1_554  S
C1705      C1808   1.469       .  S
C1706      C1784   1.470       .  S
C1707      C1760   1.468       .  S
C1708      C1736   1.468       .  S
O1709      C1719   1.277       .  A
O1710     Cu1717   2.006       .  S
O1710      C1720   1.278   1_556  A
O1711     Cu2377   2.009       .  S
O1711      C1721   1.277       .  A
O1712      C1722   1.278   1_556  A
O1713      C1722   1.277       .  A
O1714     Cu1718   2.005       .  S
O1714      C1721   1.278   1_554  A
O1715     Cu2378   2.010   1_545  S
O1715      C1720   1.277       .  A
O1716      C1719   1.278   1_554  A
Cu1717     O2371   2.009   1_545  S
Cu1717    Cu2378   2.376   1_546  S
Cu1718     O2375   2.010       .  S
Cu1718    Cu2377   2.376   1_554  S
C1719      C1798   1.469       .  S
C1720      C1774   1.468       .  S
C1721      C1750   1.467       .  S
C1722      C1726   1.467       .  S
N1723      N1724   1.321       .  A
N1723      C1727   1.349       .  A
N1723     Cu1731   2.078       .  S
N1724      C1725   1.340       .  A
N1724     Cu1730   2.054       .  S
C1725      C1726   1.378       .  A
C1725      H1728   1.082   1_554  S
C1726      C1727   1.387       .  A
C1727      H1729   1.082       .  S
Cu1730     N1733   2.054       .  S
Cu1731     N1741   2.080       .  S
Cu1732     N1734   2.075       .  S
Cu1732     N1740   2.078       .  S
N1733      N1734   1.320       .  A
N1733      C1737   1.340       .  A
N1734      C1735   1.349       .  A
C1735      C1736   1.387       .  A
C1735      H1738   1.082       .  S
C1736      C1737   1.379       .  A
C1737      H1739   1.082   1_554  S
N1740      N1741   1.324       .  A
N1740      C1744   1.343       .  A
N1741      C1742   1.346       .  A
C1742      C1743   1.386       .  A
C1742      H1745   1.081       .  S
C1743      C1852   1.484       .  S
C1743      C1744   1.385       .  A
C1744      H1746   1.082       .  S
N1747      N1748   1.321       .  A
N1747      C1751   1.348       .  A
N1747     Cu1755   2.075       .  S
N1748      C1749   1.340       .  A
N1748     Cu1754   2.054       .  S
C1749      C1750   1.379       .  A
C1749      H1752   1.082   1_556  S
C1750      C1751   1.386       .  A
C1751      H1753   1.082       .  S
Cu1754     N1757   2.054       .  S
Cu1755     N1765   2.077       .  S
Cu1756     N1758   2.079       .  S
Cu1756     N1764   2.081       .  S
N1757      N1758   1.321       .  A
N1757      C1761   1.341       .  A
N1758      C1759   1.348       .  A
C1759      C1760   1.387       .  A
C1759      H1762   1.082       .  S
C1760      C1761   1.379       .  A
C1761      H1763   1.082   1_556  S
N1764      N1765   1.325       .  A
N1764      C1768   1.345       .  A
N1765      C1766   1.345       .  A
C1766      C1767   1.380       .  A
C1766      H1769   1.082       .  S
C1767      C1845   1.469       .  S
C1767      C1768   1.381       .  A
C1768      H1770   1.082       .  S
N1771      N1772   1.320       .  A
N1771      C1775   1.348       .  A
N1771     Cu1779   2.073       .  S
N1772      C1773   1.341       .  A
N1772     Cu1778   2.054       .  S
C1773      C1774   1.379       .  A
C1773      H1776   1.082   1_554  S
C1774      C1775   1.387       .  A
C1775      H1777   1.082       .  S
Cu1778     N1781   2.054       .  S
Cu1779     N1789   2.075       .  S
Cu1780     N1782   2.086       .  S
Cu1780     N1788   2.088       .  S
N1781      N1782   1.321       .  A
N1781      C1785   1.340       .  A
N1782      C1783   1.350       .  A
C1783      C1784   1.389       .  A
C1783      H1786   1.082       .  S
C1784      C1785   1.378       .  A
C1785      H1787   1.082       .  S
N1788      N1789   1.323       .  A
N1788      C1792   1.346       .  A
N1789      C1790   1.344       .  A
C1790      C1791   1.385       .  A
C1790      H1793   1.081       .  S
C1791      C1832   1.487       .  S
C1791      C1792   1.389       .  A
C1792      H1794   1.082       .  S
N1795      N1796   1.320       .  A
N1795      C1799   1.349       .  A
N1795     Cu1803   2.078       .  S
N1796      C1797   1.341       .  A
N1796     Cu1802   2.054       .  S
C1797      C1798   1.379       .  A
C1797      H1800   1.082       .  S
C1798      C1799   1.387       .  A
C1799      H1801   1.082       .  S
Cu1802     N1805   2.054       .  S
Cu1803     N1813   2.080       .  S
Cu1804     N1806   2.083       .  S
Cu1804     N1812   2.084       .  S
N1805      N1806   1.321       .  A
N1805      C1809   1.340       .  A
N1806      C1807   1.349       .  A
C1807      C1808   1.388       .  A
C1807      H1810   1.082       .  S
C1808      C1809   1.378       .  A
C1809      H1811   1.082       .  S
N1812      N1813   1.323       .  A
N1812      C1816   1.346       .  A
N1813      C1814   1.344       .  A
C1814      C1815   1.386       .  A
C1814      H1817   1.081       .  S
C1815      C1822   1.486       .  S
C1815      C1816   1.387       .  A
C1816      H1818   1.082       .  S
C1819      C1835   1.589       .  S
C1819      C1855   1.566       .  S
C1819      C1865   1.581       .  S
C1819      C1885   1.573       .  S
C1820      C1825   1.577       .  S
C1820      C1842   1.574       .  S
C1820      C1942   1.575       .  S
C1820      C1955   1.577       .  S
C1821      C1822   1.400       .  A
C1821      C1826   1.401       .  A
C1821      H1828   1.083       .  S
C1822      C1823   1.405       .  A
C1823      C1824   1.398       .  A
C1823     Br1830   1.922       .  S
C1824      C1825   1.421       .  A
C1824      H1829   1.077       .  S
C1825      C1826   1.432       .  A
C1826     Br1827   1.924       .  S
C1831      C1832   1.399       .  A
C1831      C1836   1.399       .  A
C1831      H1838   1.083       .  S
C1832      C1833   1.406       .  A
C1833      C1834   1.399       .  A
C1833     Br1840   1.922       .  S
C1834      C1835   1.422       .  A
C1834      H1839   1.076       .  S
C1835      C1836   1.433       .  A
C1836     Br1837   1.920       .  S
C1841      C1842   1.419       .  A
C1841      C1846   1.396       .  A
C1841      H1848   1.077       .  S
C1842      C1843   1.436       .  A
C1843      C1844   1.400       .  A
C1843     Br1850   1.923       .  S
C1844      C1845   1.392       .  A
C1844      H1849   1.084       .  S
C1845      C1846   1.399       .  A
C1846     Br1847   1.918       .  S
C1851      C1852   1.397       .  A
C1851      C1856   1.399       .  A
C1851      H1858   1.084       .  S
C1852      C1853   1.406       .  A
C1853      C1854   1.398       .  A
C1853     Br1860   1.919       .  S
C1854      C1855   1.421       .  A
C1854      H1859   1.083       .  S
C1855      C1856   1.439       .  A
C1856     Br1857   1.929       .  S
C1861      C1862   1.398       .  A
C1861      C1866   1.401       .  A
C1861      H1868   1.084       .  S
C1862      C1863   1.407       .  A
C1863      C1864   1.398       .  A
C1863     Br1870   1.919       .  S
C1864      C1865   1.422       .  A
C1864      H1869   1.083       .  S
C1865      C1866   1.440       .  A
C1866     Br1867   1.931       .  S
C1871      C1876   1.396       .  A
C1871      H1878   1.076       .  S
C1872      C1873   1.437       .  A
C1873      C1874   1.401       .  A
C1873     Br1880   1.924       .  S
C1874      C1875   1.392       .  A
C1874      H1879   1.084       .  S
C1876     Br1877   1.918       .  S
C1881      C1882   1.399       .  A
C1881      C1886   1.401       .  A
C1881      H1888   1.083       .  S
C1882      C1883   1.404       .  A
C1883      C1884   1.396       .  A
C1883     Br1890   1.922       .  S
C1884      C1885   1.421       .  A
C1884      H1889   1.074       .  S
C1885      C1886   1.432       .  A
C1886     Br1887   1.920       .  S
C1891      C1892   1.398       .  A
C1891      C1896   1.400       .  A
C1891      H1898   1.083       .  S
C1893      C1894   1.399       .  A
C1893     Br1900   1.921       .  S
C1894      H1899   1.078       .  S
C1895      C1896   1.431       .  A
C1896     Br1897   1.917       .  S
C1901      C1902   1.421       .  A
C1901      C1906   1.397       .  A
C1901      H1908   1.077       .  S
C1902      C1903   1.436       .  A
C1903      C1904   1.401       .  A
C1903     Br1910   1.923       .  S
C1904      C1905   1.393       .  A
C1904      H1909   1.084       .  S
C1905      C1906   1.399       .  A
C1906     Br1907   1.919       .  S
C1911      C1912   1.397       .  A
C1911      C1916   1.401       .  A
C1911      H1918   1.084       .  S
C1912      C1913   1.406       .  A
C1913      C1914   1.397       .  A
C1913     Br1920   1.919       .  S
C1914      C1915   1.420       .  A
C1914      H1919   1.083       .  S
C1915      C1916   1.440       .  A
C1916     Br1917   1.932       .  S
C1921      C1922   1.421       .  A
C1921      C1926   1.399       .  A
C1921      H1928   1.083       .  S
C1922      C1923   1.440       .  A
C1923      C1924   1.400       .  A
C1923     Br1930   1.931       .  S
C1924      C1925   1.397       .  A
C1924      H1929   1.084       .  S
C1925      C1926   1.407       .  A
C1926     Br1927   1.919       .  S
C1931      C1932   1.422       .  A
C1931      C1936   1.397       .  A
C1931      H1938   1.076       .  S
C1932      C1933   1.432       .  A
C1933      C1934   1.401       .  A
C1934      C1935   1.399       .  A
C1934      H1939   1.083       .  S
C1935      C1936   1.405       .  A
C1936     Br1937   1.923       .  S
C1941      C1942   1.420       .  A
C1941      C1946   1.396       .  A
C1941      H1948   1.077       .  S
C1942      C1943   1.436       .  A
C1943      C1944   1.400       .  A
C1943     Br1950   1.923       .  S
C1944      C1945   1.392       .  A
C1944      H1949   1.084       .  S
C1945      C1946   1.399       .  A
C1946     Br1947   1.918       .  S
C1951      C1952   1.400       .  A
C1951      C1956   1.401       .  A
C1951      H1958   1.083       .  S
C1952      C1953   1.404       .  A
C1953      C1954   1.397       .  A
C1953     Br1960   1.922       .  S
C1954      C1955   1.421       .  A
C1954      H1959   1.077       .  S
C1955      C1956   1.432       .  A
C1956     Br1957   1.924       .  S
C1961      C1966   1.401       .  A
C1961      H1968   1.083       .  S
C1962      C1963   1.406       .  A
C1963      C1964   1.398       .  A
C1963     Br2630   1.922       .  S
C1964      C1965   1.421       .  A
C1964      H1969   1.075       .  S
C1966     Br1967   1.926       .  S
Br1970     C2623   1.922       .  S
C1971      C1976   1.396       .  A
C1971      H1978   1.074       .  S
C1972      C1973   1.433       .  A
C1973      C1974   1.401       .  A
C1973     Br1980   1.926       .  S
C1974      C1975   1.400       .  A
C1974      H1979   1.083       .  S
C1976     Br1977   1.922       .  S
O1981     Cu1989   2.007       .  S
O1981      C1991   1.278       .  A
O1982     Cu1989   2.014       .  S
O1982      C1992   1.277       .  A
O1983     Cu1989   2.005       .  S
O1983      C1993   1.278       .  A
O1984     Cu1989   2.011       .  S
O1984      C1994   1.277       .  A
O1985     Cu1990   2.006       .  S
O1985      C1994   1.278       .  A
O1986     Cu1990   2.012       .  S
O1986      C1993   1.277       .  A
O1987     Cu1990   2.004       .  S
O1987      C1992   1.278       .  A
O1988     Cu1990   2.011       .  S
O1988      C1991   1.277       .  A
Cu1989    Cu1990   2.376       .  S
C1991      C2084   1.468       .  S
C1992      C2022   1.469       .  S
C1993      C2060   1.468       .  S
C1994      C2046   1.468       .  S
O1995     Cu2003   2.003       .  S
O1995      C2005   1.278       .  A
O1996     Cu2003   2.009       .  S
O1996      C2006   1.276       .  A
O1997     Cu2003   2.007       .  S
O1997      C2007   1.279       .  A
O1998     Cu2003   2.012       .  S
O1998      C2008   1.277       .  A
O1999     Cu2004   2.007       .  S
O1999      C2008   1.278       .  A
O2000     Cu2004   2.014       .  S
O2000      C2007   1.277       .  A
O2001     Cu2004   2.008       .  S
O2001      C2006   1.278       .  A
O2002     Cu2004   2.013       .  S
O2002      C2005   1.277       .  A
Cu2003    Cu2004   2.376       .  S
C2005      C2012   1.468       .  S
C2006      C2094   1.468       .  S
C2007      C2036   1.470       .  S
C2008      C2070   1.469       .  S
N2009      N2010   1.320       .  A
N2009      C2013   1.348       .  A
N2009     Cu2017   2.074       .  S
N2010      C2011   1.340       .  A
C2011      C2012   1.379       .  A
C2011      H2014   1.082       .  S
C2012      C2013   1.387       .  A
C2013      H2015   1.082       .  S
Cu2016     N2019   2.054       .  S
Cu2017     N2027   2.076       .  S
Cu2018     N2020   2.081       .  S
Cu2018     N2026   2.083       .  S
N2019      N2020   1.321       .  A
N2019      C2023   1.340       .  A
N2020      C2021   1.349       .  A
C2021      C2022   1.388       .  A
C2021      H2024   1.082       .  S
C2022      C2023   1.378       .  A
C2023      H2025   1.082       .  S
N2026      C2030   1.346       .  A
N2027      C2028   1.344       .  A
C2028      H2031   1.081       .  S
C2029      C2635   1.482       .  S
C2029      C2030   1.386       .  A
C2030      H2032   1.082       .  S
N2033      N2034   1.321       .  A
N2033      C2037   1.350       .  A
N2033     Cu2041   2.087       .  S
N2034      C2035   1.340       .  A
C2035      C2036   1.378       .  A
C2035      H2038   1.082       .  S
C2036      C2037   1.389       .  A
C2037      H2039   1.082       .  S
Cu2040     N2043   2.054       .  S
Cu2042     N2044   2.074       .  S
N2043      N2044   1.320       .  A
N2043      C2047   1.341       .  A
N2044      C2045   1.348       .  A
C2045      C2046   1.387       .  A
C2045      H2048   1.082       .  S
C2046      C2047   1.379       .  A
C2047      H2049   1.082       .  S
N2050      C2054   1.344       .  A
N2051      C2052   1.347       .  A
C2052      H2055   1.082       .  S
C2053      C2622   1.487       .  S
C2053      C2054   1.385       .  A
C2054      H2056   1.081       .  S
N2057      N2058   1.320       .  A
N2057      C2061   1.348       .  A
N2057     Cu2065   2.077       .  S
N2058      C2059   1.341       .  A
N2058     Cu2064   2.054       .  S
C2059      C2060   1.379       .  A
C2059      H2062   1.082       .  S
C2060      C2061   1.387       .  A
C2061      H2063   1.082       .  S
Cu2064     N2067   2.055       .  S
Cu2065     N2075   2.079       .  S
Cu2066     N2068   2.080       .  S
Cu2066     N2074   2.082       .  S
N2067      N2068   1.321       .  A
N2067      C2071   1.340       .  A
N2068      C2069   1.349       .  A
C2069      C2070   1.387       .  A
C2069      H2072   1.082       .  S
C2070      C2071   1.379       .  A
C2071      H2073   1.082       .  S
N2074      N2075   1.323       .  A
N2074      C2078   1.345       .  A
N2075      C2076   1.344       .  A
C2076      C2077   1.386       .  A
C2076      H2079   1.081       .  S
C2077      C2612   1.485       .  S
C2077      C2078   1.387       .  A
C2078      H2080   1.082       .  S
N2081      N2082   1.321       .  A
N2081      C2085   1.348       .  A
N2081     Cu2089   2.080       .  S
N2082      C2083   1.341       .  A
N2082     Cu2088   2.054       .  S
C2083      C2084   1.378       .  A
C2083      H2086   1.082       .  S
C2084      C2085   1.387       .  A
C2085      H2087   1.082       .  S
Cu2088     N2091   2.054       .  S
Cu2090     N2092   2.078       .  S
N2091      N2092   1.321       .  A
N2091      C2095   1.341       .  A
N2092      C2093   1.348       .  A
C2093      C2094   1.387       .  A
C2093      H2096   1.082       .  S
C2094      C2095   1.379       .  A
C2095      H2097   1.082       .  S
N2098      N2099   1.325       .  A
N2098      C2102   1.345       .  A
N2099      C2100   1.346       .  A
C2100      C2101   1.381       .  A
C2100      H2103   1.082       .  S
C2101      C2605   1.470       .  S
C2101      C2102   1.380       .  A
C2102      H2104   1.082       .  S
C2105      C2582   1.578       .  S
C2105      C2625   1.582       .  S
C2105      C2632   1.565       .  S
O2106     Cu2114   2.007       .  S
O2106      C2116   1.279       .  A
O2107      C2117   1.277       .  A
O2108     Cu2114   2.002       .  S
O2108      C2118   1.277       .  A
O2109      C2119   1.276       .  A
O2110     Cu2115   2.007       .  S
O2110      C2119   1.278       .  A
O2111      C2118   1.277       .  A
O2112     Cu2115   2.003       .  S
O2112      C2117   1.278       .  A
O2113      C2116   1.276       .  A
C2116      C2185   1.468       .  S
C2117      C2161   1.468       .  S
C2118      C2209   1.467       .  S
C2119      C2137   1.467       .  S
O2120     Cu2128   2.020       .  S
O2120      C2130   1.278       .  A
O2121     Cu2128   2.014       .  S
O2121      C2131   1.279       .  A
O2122     Cu2128   2.009       .  S
O2122      C2132   1.276       .  A
O2123     Cu2128   2.003       .  S
O2123      C2133   1.278       .  A
O2124     Cu2129   2.016       .  S
O2124      C2133   1.277       .  A
O2125     Cu2129   2.010       .  S
O2125      C2132   1.279       .  A
O2126     Cu2129   2.009       .  S
O2126      C2131   1.276       .  A
O2127     Cu2129   2.002       .  S
O2127      C2130   1.278       .  A
Cu2128    Cu2129   2.375       .  S
C2130      C2195   1.470       .  S
C2131      C2171   1.470       .  S
C2132      C2219   1.469       .  S
C2133      C2147   1.469       .  S
N2134      N2135   1.321       .  A
N2134      C2138   1.348       .  A
N2134     Cu2142   2.078       .  S
N2135      C2136   1.341       .  A
N2135     Cu2141   2.054       .  S
C2136      C2137   1.378       .  A
C2136      H2139   1.082       .  S
C2137      C2138   1.387       .  A
C2138      H2140   1.082       .  S
Cu2141     N2144   2.054       .  S
Cu2142     N2152   2.079       .  S
Cu2143     N2145   2.078       .  S
Cu2143     N2151   2.081       .  S
N2144      N2145   1.320       .  A
N2144      C2148   1.340       .  A
N2145      C2146   1.349       .  A
C2146      C2147   1.388       .  A
C2146      H2149   1.082       .  S
C2147      C2148   1.379       .  A
C2148      H2150   1.082       .  S
N2151      N2152   1.323       .  A
N2151      C2155   1.343       .  A
N2152      C2153   1.346       .  A
C2153      C2154   1.386       .  A
C2153      H2156   1.081       .  S
C2154      C2572   1.486       .  S
C2154      C2155   1.386       .  A
C2155      H2157   1.082       .  S
N2158      N2159   1.321       .  A
N2158      C2162   1.348       .  A
N2158     Cu2166   2.078       .  S
N2159      C2160   1.340       .  A
N2159     Cu2165   2.054       .  S
C2160      C2161   1.379       .  A
C2160      H2163   1.082       .  S
C2161      C2162   1.387       .  A
C2162      H2164   1.082       .  S
Cu2165     N2168   2.055       .  S
Cu2166     N2176   2.079       .  S
Cu2167     N2169   2.084       .  S
Cu2167     N2175   2.085       .  S
N2168      N2169   1.321       .  A
N2168      C2172   1.341       .  A
N2169      C2170   1.349       .  A
C2170      C2171   1.388       .  A
C2170      H2173   1.082       .  S
C2171      C2172   1.379       .  A
C2172      H2174   1.082       .  S
N2175      N2176   1.325       .  A
N2175      C2179   1.347       .  A
N2176      C2177   1.345       .  A
C2177      C2178   1.380       .  A
C2177      H2180   1.082       .  S
C2178      C2565   1.472       .  S
C2178      C2179   1.382       .  A
C2179      H2181   1.082       .  S
N2182      N2183   1.321       .  A
N2182      C2186   1.349       .  A
N2182     Cu2190   2.082       .  S
N2183      C2184   1.340       .  A
N2183     Cu2189   2.054       .  S
C2184      C2185   1.378       .  A
C2184      H2187   1.082       .  S
C2185      C2186   1.388       .  A
C2186      H2188   1.082       .  S
Cu2189     N2192   2.053       .  S
Cu2190     N2200   2.083       .  S
Cu2191     N2193   2.081       .  S
Cu2191     N2199   2.084       .  S
N2192      N2193   1.320       .  A
N2192      C2196   1.340       .  A
N2193      C2194   1.350       .  A
C2194      C2195   1.389       .  A
C2194      H2197   1.082       .  S
C2195      C2196   1.379       .  A
C2196      H2198   1.082       .  S
N2199      N2200   1.324       .  A
N2199      C2203   1.343       .  A
N2200      C2201   1.347       .  A
C2201      C2202   1.387       .  A
C2201      H2204   1.081       .  S
C2202      C2585   1.488       .  S
C2202      C2203   1.386       .  A
C2203      H2205   1.082       .  S
N2206      N2207   1.320       .  A
N2206      C2210   1.348       .  A
N2206     Cu2214   2.072       .  S
N2207      C2208   1.340       .  A
N2207     Cu2213   2.054       .  S
C2208      C2209   1.379       .  A
C2208      H2211   1.082       .  S
C2209      C2210   1.386       .  A
C2210      H2212   1.082       .  S
Cu2213     N2216   2.054       .  S
Cu2214     N2224   2.075       .  S
Cu2215     N2217   2.083       .  S
Cu2215     N2223   2.084       .  S
N2216      N2217   1.321       .  A
N2216      C2220   1.341       .  A
N2217      C2218   1.349       .  A
C2218      C2219   1.388       .  A
C2218      H2221   1.082       .  S
C2219      C2220   1.378       .  A
C2220      H2222   1.082       .  S
N2223      N2224   1.323       .  A
N2223      C2227   1.346       .  A
N2224      C2225   1.343       .  A
C2225      C2226   1.385       .  A
C2225      H2228   1.081       .  S
C2226      C2595   1.485       .  S
C2226      C2227   1.388       .  A
C2227      H2229   1.082       .  S
O2230     Cu2238   2.015       .  S
O2230      C2240   1.277       .  A
O2231     Cu2238   2.009       .  S
O2231      C2241   1.278       .  A
O2232     Cu2238   2.013       .  S
O2232      C2242   1.277       .  A
O2233     Cu2238   2.008       .  S
O2233      C2243   1.278       .  A
O2234     Cu2239   2.009       .  S
O2234      C2243   1.277       .  A
O2235     Cu2239   2.003       .  S
O2235      C2242   1.278       .  A
O2236     Cu2239   2.008       .  S
O2236      C2241   1.276       .  A
O2237     Cu2239   2.003       .  S
O2237      C2240   1.278       .  A
Cu2238    Cu2239   2.376       .  S
C2240      C2343   1.469       .  S
C2241      C2309   1.468       .  S
C2242      C2295   1.468       .  S
C2243      C2261   1.468       .  S
O2244     Cu2252   2.010       .  S
O2244      C2254   1.279       .  A
O2245     Cu2252   2.015       .  S
O2245      C2255   1.277       .  A
O2246     Cu2252   2.001       .  S
O2246      C2256   1.277       .  A
O2247     Cu2252   2.007       .  S
O2247      C2257   1.276       .  A
O2248     Cu2253   2.008       .  S
O2248      C2257   1.279       .  A
O2249     Cu2253   2.013       .  S
O2249      C2256   1.277       .  A
O2250     Cu2253   2.002       .  S
O2250      C2255   1.278       .  A
O2251     Cu2253   2.009       .  S
O2251      C2254   1.276       .  A
Cu2252    Cu2253   2.376       .  S
C2254      C2333   1.469       .  S
C2255      C2319   1.469       .  S
C2256      C2285   1.467       .  S
C2257      C2271   1.467       .  S
N2258      N2259   1.321       .  A
N2258      C2262   1.348       .  A
N2258     Cu2266   2.080       .  S
N2259      C2260   1.341       .  A
C2260      C2261   1.379       .  A
C2260      H2263   1.082       .  S
C2261      C2262   1.387       .  A
C2262      H2264   1.082       .  S
Cu2265     N2268   2.054       .  S
Cu2267     N2269   2.078       .  S
N2268      N2269   1.321       .  A
N2268      C2272   1.341       .  A
N2269      C2270   1.348       .  A
C2270      C2271   1.387       .  A
C2270      H2273   1.082       .  S
C2271      C2272   1.378       .  A
C2272      H2274   1.082       .  S
N2275      C2279   1.345       .  A
N2276      C2277   1.345       .  A
C2277      H2280   1.082       .  S
C2278      C2552   1.484       .  S
C2278      C2279   1.386       .  A
C2279      H2281   1.082       .  S
N2282      N2283   1.320       .  A
N2282      C2286   1.348       .  A
N2282     Cu2290   2.071       .  S
N2283      C2284   1.340       .  A
N2283     Cu2289   2.054       .  S
C2284      C2285   1.379       .  A
C2284      H2287   1.082       .  S
C2285      C2286   1.386       .  A
C2286      H2288   1.082       .  S
Cu2289     N2292   2.054       .  S
Cu2290     N2300   2.074       .  S
Cu2291     N2293   2.078       .  S
Cu2291     N2299   2.080       .  S
N2292      N2293   1.321       .  A
N2292      C2296   1.340       .  A
N2293      C2294   1.349       .  A
C2294      C2295   1.387       .  A
C2294      H2297   1.082       .  S
C2295      C2296   1.378       .  A
C2296      H2298   1.082       .  S
N2299      N2300   1.323       .  A
N2299      C2303   1.344       .  A
N2300      C2301   1.344       .  A
C2301      C2302   1.384       .  A
C2301      H2304   1.081       .  S
C2302      C2542   1.482       .  S
C2302      C2303   1.386       .  A
C2303      H2305   1.082       .  S
N2306      N2307   1.321       .  A
N2306      C2310   1.348       .  A
N2306     Cu2314   2.076       .  S
N2307      C2308   1.341       .  A
C2308      C2309   1.379       .  A
C2308      H2311   1.082       .  S
C2309      C2310   1.387       .  A
C2310      H2312   1.082       .  S
Cu2313     N2316   2.054       .  S
Cu2314     N2324   2.078       .  S
Cu2315     N2317   2.079       .  S
Cu2315     N2323   2.080       .  S
N2316      N2317   1.321       .  A
N2316      C2320   1.340       .  A
N2317      C2318   1.349       .  A
C2318      C2319   1.387       .  A
C2318      H2321   1.082       .  S
C2319      C2320   1.379       .  A
C2320      H2322   1.082       .  S
N2323      C2327   1.345       .  A
N2324      C2325   1.346       .  A
C2325      H2328   1.082       .  S
C2326      C2535   1.469       .  S
C2326      C2327   1.380       .  A
C2327      H2329   1.082       .  S
N2330      N2331   1.321       .  A
N2330      C2334   1.349       .  A
N2330     Cu2338   2.085       .  S
N2331      C2332   1.340       .  A
N2331     Cu2337   2.053       .  S
C2332      C2333   1.378       .  A
C2332      H2335   1.082       .  S
C2333      C2334   1.388       .  A
C2334      H2336   1.082       .  S
Cu2337     N2340   2.053       .  S
Cu2339     N2341   2.078       .  S
N2340      N2341   1.320       .  A
N2340      C2344   1.340       .  A
N2341      C2342   1.349       .  A
C2342      C2343   1.388       .  A
C2342      H2345   1.082       .  S
C2343      C2344   1.379       .  A
C2344      H2346   1.082       .  S
N2347      N2348   1.324       .  A
N2347      C2351   1.343       .  A
N2348      C2349   1.347       .  A
C2349      C2350   1.388       .  A
C2349      H2352   1.081       .  S
C2350      C2522   1.489       .  S
C2350      C2351   1.386       .  A
C2351      H2353   1.082       .  S
C2354      C2532   1.564       .  S
C2354      C2555   1.583       .  S
C2354      C2575   1.575       .  S
O2355      C2365   1.278   1_554  A
O2356     Cu2363   2.013       .  S
O2356      C2366   1.277       .  A
O2357     Cu2363   2.010       .  S
O2357      C2367   1.279   1_554  A
O2358      C2368   1.277       .  A
O2359      C2368   1.278   1_556  A
O2360     Cu2364   2.008       .  S
O2360      C2367   1.276       .  A
O2361     Cu2364   2.008       .  S
O2361      C2366   1.279   1_556  A
O2362      C2365   1.277       .  A
Cu2363    Cu2364   2.376   1_554  S
C2365      C2468   1.469       .  S
C2366      C2444   1.470       .  S
C2367      C2420   1.468       .  S
C2368      C2396   1.468       .  S
O2369      C2379   1.277       .  A
O2370     Cu2377   2.006       .  S
O2370      C2380   1.278   1_556  A
O2371      C2381   1.277       .  A
O2372      C2382   1.278   1_556  A
O2373      C2382   1.277       .  A
O2374     Cu2378   2.005       .  S
O2374      C2381   1.278   1_554  A
O2375      C2380   1.277       .  A
O2376      C2379   1.278   1_554  A
C2379      C2458   1.469       .  S
C2380      C2434   1.468       .  S
C2381      C2410   1.467       .  S
C2382      C2386   1.467       .  S
N2383      N2384   1.321       .  A
N2383      C2387   1.349       .  A
N2383     Cu2391   2.078       .  S
N2384      C2385   1.340       .  A
N2384     Cu2390   2.054       .  S
C2385      C2386   1.378       .  A
C2385      H2388   1.082   1_554  S
C2386      C2387   1.387       .  A
C2387      H2389   1.082       .  S
Cu2390     N2393   2.054       .  S
Cu2391     N2401   2.079       .  S
Cu2392     N2394   2.075       .  S
Cu2392     N2400   2.078       .  S
N2393      N2394   1.320       .  A
N2393      C2397   1.340       .  A
N2394      C2395   1.349       .  A
C2395      C2396   1.387       .  A
C2395      H2398   1.082       .  S
C2396      C2397   1.379       .  A
C2397      H2399   1.082   1_554  S
N2400      N2401   1.324       .  A
N2400      C2404   1.342       .  A
N2401      C2402   1.346       .  A
C2402      C2403   1.386       .  A
C2402      H2405   1.081       .  S
C2403      C2512   1.484       .  S
C2403      C2404   1.385       .  A
C2404      H2406   1.082       .  S
N2407      N2408   1.321       .  A
N2407      C2411   1.348       .  A
N2407     Cu2415   2.075       .  S
N2408      C2409   1.340       .  A
N2408     Cu2414   2.054       .  S
C2409      C2410   1.379       .  A
C2409      H2412   1.082   1_556  S
C2410      C2411   1.386       .  A
C2411      H2413   1.082       .  S
Cu2414     N2417   2.054       .  S
Cu2415     N2425   2.077       .  S
Cu2416     N2418   2.079       .  S
Cu2416     N2424   2.081       .  S
N2417      N2418   1.321       .  A
N2417      C2421   1.341       .  A
N2418      C2419   1.348       .  A
C2419      C2420   1.387       .  A
C2419      H2422   1.082       .  S
C2420      C2421   1.379       .  A
C2421      H2423   1.082   1_556  S
N2424      N2425   1.325       .  A
N2424      C2428   1.345       .  A
N2425      C2426   1.345       .  A
C2426      C2427   1.380       .  A
C2426      H2429   1.082       .  S
C2427      C2505   1.469       .  S
C2427      C2428   1.381       .  A
C2428      H2430   1.082       .  S
N2431      N2432   1.320       .  A
N2431      C2435   1.348       .  A
N2431     Cu2439   2.073       .  S
N2432      C2433   1.341       .  A
N2432     Cu2438   2.054       .  S
C2433      C2434   1.379       .  A
C2433      H2436   1.082   1_554  S
C2434      C2435   1.387       .  A
C2435      H2437   1.082       .  S
Cu2438     N2441   2.054       .  S
Cu2439     N2449   2.075       .  S
Cu2440     N2442   2.086       .  S
Cu2440     N2448   2.088       .  S
N2441      N2442   1.321       .  A
N2441      C2445   1.340       .  A
N2442      C2443   1.350       .  A
C2443      C2444   1.389       .  A
C2443      H2446   1.082       .  S
C2444      C2445   1.378       .  A
C2445      H2447   1.082       .  S
N2448      N2449   1.323       .  A
N2448      C2452   1.346       .  A
N2449      C2450   1.344       .  A
C2450      C2451   1.385       .  A
C2450      H2453   1.081       .  S
C2451      C2492   1.487       .  S
C2451      C2452   1.389       .  A
C2452      H2454   1.082       .  S
N2455      N2456   1.320       .  A
N2455      C2459   1.349       .  A
N2455     Cu2463   2.078       .  S
N2456      C2457   1.341       .  A
N2456     Cu2462   2.054       .  S
C2457      C2458   1.379       .  A
C2457      H2460   1.082       .  S
C2458      C2459   1.387       .  A
C2459      H2461   1.082       .  S
Cu2462     N2465   2.054       .  S
Cu2463     N2473   2.080       .  S
Cu2464     N2466   2.083       .  S
Cu2464     N2472   2.084       .  S
N2465      N2466   1.321       .  A
N2465      C2469   1.340       .  A
N2466      C2467   1.349       .  A
C2467      C2468   1.388       .  A
C2467      H2470   1.082       .  S
C2468      C2469   1.378       .  A
C2469      H2471   1.082       .  S
N2472      N2473   1.323       .  A
N2472      C2476   1.346       .  A
N2473      C2474   1.344       .  A
C2474      C2475   1.386       .  A
C2474      H2477   1.081       .  S
C2475      C2482   1.486       .  S
C2475      C2476   1.387       .  A
C2476      H2478   1.082       .  S
C2479      C2495   1.589       .  S
C2479      C2515   1.566       .  S
C2479      C2525   1.581       .  S
C2479      C2545   1.573       .  S
C2480      C2485   1.577       .  S
C2480      C2502   1.574       .  S
C2480      C2602   1.575       .  S
C2480      C2615   1.577       .  S
C2481      C2482   1.400       .  A
C2481      C2486   1.401       .  A
C2481      H2488   1.083       .  S
C2482      C2483   1.405       .  A
C2483      C2484   1.398       .  A
C2483     Br2490   1.922       .  S
C2484      C2485   1.421       .  A
C2484      H2489   1.077       .  S
C2485      C2486   1.432       .  A
C2486     Br2487   1.924       .  S
C2491      C2492   1.399       .  A
C2491      C2496   1.399       .  A
C2491      H2498   1.083       .  S
C2492      C2493   1.406       .  A
C2493      C2494   1.399       .  A
C2493     Br2500   1.922       .  S
C2494      C2495   1.422       .  A
C2494      H2499   1.076       .  S
C2495      C2496   1.433       .  A
C2496     Br2497   1.920       .  S
C2501      C2502   1.419       .  A
C2501      C2506   1.396       .  A
C2501      H2508   1.077       .  S
C2502      C2503   1.436       .  A
C2503      C2504   1.400       .  A
C2503     Br2510   1.923       .  S
C2504      C2505   1.392       .  A
C2504      H2509   1.084       .  S
C2505      C2506   1.399       .  A
C2506     Br2507   1.918       .  S
C2511      C2512   1.397       .  A
C2511      C2516   1.399       .  A
C2511      H2518   1.084       .  S
C2512      C2513   1.406       .  A
C2513      C2514   1.398       .  A
C2513     Br2520   1.919       .  S
C2514      C2515   1.421       .  A
C2514      H2519   1.083       .  S
C2515      C2516   1.439       .  A
C2516     Br2517   1.929       .  S
C2521      C2522   1.398       .  A
C2521      C2526   1.401       .  A
C2521      H2528   1.084       .  S
C2522      C2523   1.407       .  A
C2523      C2524   1.398       .  A
C2523     Br2530   1.919       .  S
C2524      C2525   1.422       .  A
C2524      H2529   1.083       .  S
C2525      C2526   1.440       .  A
C2526     Br2527   1.931       .  S
C2531      C2536   1.396       .  A
C2531      H2538   1.076       .  S
C2532      C2533   1.437       .  A
C2533      C2534   1.401       .  A
C2533     Br2540   1.924       .  S
C2534      C2535   1.392       .  A
C2534      H2539   1.084       .  S
C2536     Br2537   1.918       .  S
C2541      C2542   1.399       .  A
C2541      C2546   1.401       .  A
C2541      H2548   1.083       .  S
C2542      C2543   1.404       .  A
C2543      C2544   1.396       .  A
C2543     Br2550   1.922       .  S
C2544      C2545   1.421       .  A
C2544      H2549   1.074       .  S
C2545      C2546   1.432       .  A
C2546     Br2547   1.920       .  S
C2551      C2552   1.398       .  A
C2551      C2556   1.400       .  A
C2551      H2558   1.083       .  S
C2553      C2554   1.399       .  A
C2553     Br2560   1.921       .  S
C2554      H2559   1.078       .  S
C2555      C2556   1.431       .  A
C2556     Br2557   1.917       .  S
C2561      C2562   1.421       .  A
C2561      C2566   1.397       .  A
C2561      H2568   1.077       .  S
C2562      C2563   1.436       .  A
C2563      C2564   1.401       .  A
C2563     Br2570   1.923       .  S
C2564      C2565   1.393       .  A
C2564      H2569   1.084       .  S
C2565      C2566   1.399       .  A
C2566     Br2567   1.919       .  S
C2571      C2572   1.397       .  A
C2571      C2576   1.401       .  A
C2571      H2578   1.084       .  S
C2572      C2573   1.406       .  A
C2573      C2574   1.397       .  A
C2573     Br2580   1.919       .  S
C2574      C2575   1.420       .  A
C2574      H2579   1.083       .  S
C2575      C2576   1.440       .  A
C2576     Br2577   1.932       .  S
C2581      C2582   1.421       .  A
C2581      C2586   1.399       .  A
C2581      H2588   1.083       .  S
C2582      C2583   1.440       .  A
C2583      C2584   1.400       .  A
C2583     Br2590   1.931       .  S
C2584      C2585   1.397       .  A
C2584      H2589   1.084       .  S
C2585      C2586   1.407       .  A
C2586     Br2587   1.919       .  S
C2591      C2592   1.422       .  A
C2591      C2596   1.397       .  A
C2591      H2598   1.076       .  S
C2592      C2593   1.432       .  A
C2593      C2594   1.401       .  A
C2594      C2595   1.399       .  A
C2594      H2599   1.083       .  S
C2595      C2596   1.405       .  A
C2596     Br2597   1.923       .  S
C2601      C2602   1.420       .  A
C2601      C2606   1.396       .  A
C2601      H2608   1.077       .  S
C2602      C2603   1.436       .  A
C2603      C2604   1.400       .  A
C2603     Br2610   1.923       .  S
C2604      C2605   1.392       .  A
C2604      H2609   1.084       .  S
C2605      C2606   1.399       .  A
C2606     Br2607   1.918       .  S
C2611      C2612   1.400       .  A
C2611      C2616   1.401       .  A
C2611      H2618   1.083       .  S
C2612      C2613   1.404       .  A
C2613      C2614   1.397       .  A
C2613     Br2620   1.922       .  S
C2614      C2615   1.421       .  A
C2614      H2619   1.077       .  S
C2615      C2616   1.432       .  A
C2616     Br2617   1.924       .  S
C2621      C2626   1.401       .  A
C2621      H2628   1.083       .  S
C2622      C2623   1.406       .  A
C2623      C2624   1.398       .  A
C2624      C2625   1.421       .  A
C2624      H2629   1.075       .  S
C2626     Br2627   1.926       .  S
C2631      C2636   1.396       .  A
C2631      H2638   1.074       .  S
C2632      C2633   1.433       .  A
C2633      C2634   1.401       .  A
C2633     Br2640   1.926       .  S
C2634      C2635   1.400       .  A
C2634      H2639   1.083       .  S
C2636     Br2637   1.922       .  S
