geometry optimzed in LAMMPS
_audit_creation_date              2020-11-30 
_audit_creation_method            'lammps2cif' 
_symmetry_space_group_name_H-M    'P1' 
_symmetry_Int_Tables_number       1 
_symmetry_cell_setting            triclinic 
loop_ 
_symmetry_equiv_pos_as_xyz 
  x,y,z 
_cell_length_a                    25.058825034192513 
_cell_length_b                    24.819084355515734 
_cell_length_c                    40.42722568190027 
_cell_angle_alpha                 89.6711971126195 
_cell_angle_beta                  89.36077006778324 
_cell_angle_gamma                 90.54230038942752 
loop_ 
_atom_site_label 
_atom_site_type_symbol 
_atom_site_fract_x 
_atom_site_fract_y 
_atom_site_fract_z 
_atom_site_charge 
O1          O  0.88658107  0.45087048  0.76032335    -0.80050
O2          O  0.11606608  0.54955583  0.76002692    -0.80070
O3          O  0.05627279  0.44086491  0.79953927    -0.80080
O4          O  0.94656473  0.55583748  0.80193630    -0.80020
O5          O  0.11303199  0.44559347  0.75806233    -0.80150
O6          O  0.88999895  0.55418863  0.76102453    -0.80070
O7          O  0.05814201  0.55339869  0.80107925    -0.80050
O8          O  0.94466542  0.44299719  0.80041005    -0.80090
C9          C  0.89718874  0.43965401  0.79028564     1.09640
C10         C  0.10563127  0.55769180  0.79045921     1.09520
C11         C  0.10331964  0.43586458  0.78845659     1.09660
C12         C  0.89987309  0.56284738  0.79132167     1.09540
O13         O  0.94739395  0.56053768  0.69795590    -0.80050
O14         O  0.05548361  0.44568499  0.69594760    -0.80130
O15         O  0.94666720  0.38844045  0.73707902    -0.80060
O16         O  0.05607175  0.61390469  0.73906205    -0.80040
O17         O  0.05764274  0.55783568  0.69747291    -0.80100
O18         O  0.94453923  0.44739527  0.69658554    -0.80060
O19         O  0.95317236  0.61638950  0.73958610    -0.80020
O20         O  0.04931902  0.38518046  0.73572318    -0.80090
Co21       Co  0.92446821  0.50293527  0.72907062     1.51530
Co22       Co  0.07839400  0.49993300  0.72812762     1.51690
Co23       Co  0.99954196  0.42169406  0.76810671     1.51570
Co24       Co  0.00333312  0.57752858  0.77012266     1.51470
O25         O  0.00140606  0.50047815  0.74894492    -1.41990
C26         C  0.94215610  0.60755314  0.70944903     1.09570
C27         C  0.05905286  0.39738516  0.70565617     1.09660
C28         C  0.93769636  0.39967651  0.70693834     1.09590
C29         C  0.06414773  0.60489511  0.70848930     1.09570
C30         C  0.72408820  0.34174149  0.86419709     0.03220
C31         C  0.70402147  0.29194367  0.85337761    -0.12930
C32         C  0.65665707  0.27026724  0.86720919     0.00720
C33         C  0.63165699  0.29730000  0.89355263    -0.11460
C34         C  0.65117276  0.34737657  0.90410676     0.03210
C35         C  0.69695804  0.36962696  0.88914559    -0.10880
H36         H  0.72312110  0.27217491  0.83260148     0.08800
H37         H  0.59491762  0.28127253  0.90422725     0.06330
H38         H  0.71088638  0.40927248  0.89642990     0.06180
O39         O  0.55107064  0.05226397  0.80252318    -0.80050
O40         O  0.43740148  0.94498541  0.80127918    -0.80070
O41         O  0.44612895  0.11365469  0.75848126    -0.80080
O42         O  0.54828254  0.88338540  0.76113908    -0.80020
O43         O  0.43917487  0.05620196  0.79938437    -0.80150
O44         O  0.54987360  0.94022621  0.80211265    -0.80070
O45         O  0.44496214  0.88415158  0.76220456    -0.80050
O46         O  0.54922262  0.11235313  0.76234657    -0.80090
C47         C  0.55767819  0.10015853  0.79249217     1.09640
C48         C  0.43418746  0.89659161  0.79201902     1.09520
C49         C  0.43459105  0.10363317  0.78859904     1.09660
C50         C  0.55685960  0.89314711  0.79142823     1.09540
O51         O  0.61056746  0.94655053  0.73907419    -0.80050
O52         O  0.38568370  0.05095701  0.73489206    -0.80130
O53         O  0.55767439  0.05345465  0.69901603    -0.80060
O54         O  0.44289181  0.94095135  0.69826607    -0.80040
O55         O  0.38352648  0.94563531  0.73813249    -0.80100
O56         O  0.61185619  0.05033670  0.74090404    -0.80060
O57         O  0.55339976  0.94131619  0.69840947    -0.80020
O58         O  0.44743859  0.05434256  0.69600458    -0.80090
Co59       Co  0.57350284  0.99721702  0.77085612     1.51530
Co60       Co  0.41857125  0.99947859  0.76821606     1.51690
Co61       Co  0.50011780  0.07618864  0.72922697     1.51570
Co62       Co  0.49726061  0.91976315  0.73021795     1.51470
O63         O  0.49728274  0.99813469  0.74967831    -1.41990
C64         C  0.60064709  0.93778071  0.70873513     1.09570
C65         C  0.39964298  0.06093872  0.70506466     1.09660
C66         C  0.60397902  0.05913801  0.71038668     1.09590
C67         C  0.39535111  0.93521309  0.70826800     1.09570
C68         C  0.34264035  0.72219478  0.86799879     0.03220
C69         C  0.29590376  0.70007788  0.85461957    -0.12930
C70         C  0.27664456  0.64978318  0.86566061     0.00720
C71         C  0.30374520  0.62199792  0.89049516    -0.11460
C72         C  0.34893041  0.64503122  0.90501311     0.03210
C73         C  0.36821845  0.69515224  0.89381242    -0.10880
H74         H  0.27661579  0.72016048  0.83414159     0.08800
H75         H  0.29022142  0.58213777  0.89808012     0.06330
H76         H  0.40493538  0.71153708  0.90371915     0.06180
C77         C  0.65877538  0.72597119  0.86798843     0.03220
C78         C  0.70823926  0.70711266  0.85659417    -0.12930
C79         C  0.72815103  0.65743575  0.86741758     0.00720
C80         C  0.70034873  0.62870105  0.89223275    -0.11460
C81         C  0.65286345  0.64919168  0.90566838     0.03210
C82         C  0.63221154  0.69785204  0.89357206    -0.10880
H83         H  0.72944212  0.72927766  0.83726835     0.08800
H84         H  0.71421559  0.58942013  0.89999103     0.06330
H85         H  0.59345411  0.71131826  0.90213349     0.06180
C86         C  0.27410030  0.34430571  0.86470530     0.03220
C87         C  0.29461252  0.29576035  0.85275819    -0.12930
C88         C  0.34094248  0.27376730  0.86607105     0.00720
C89         C  0.36555396  0.29907660  0.89289423    -0.11460
C90         C  0.34544532  0.34789030  0.90505526     0.03210
C91         C  0.29959162  0.37024636  0.89096888    -0.10880
H92         H  0.27629742  0.27664070  0.83159491     0.08800
H93         H  0.40288510  0.28360644  0.90213264     0.06330
H94         H  0.28571204  0.40928677  0.89909207     0.06180
C95         C  0.22844628  0.16021321  0.63201144     0.03220
C96         C  0.20172368  0.20437539  0.64636447    -0.12930
C97         C  0.15441430  0.22444023  0.63290205     0.00720
C98         C  0.13151709  0.19872659  0.60578231    -0.11460
C99         C  0.15591725  0.15359775  0.59196423     0.03210
C100        C  0.20478232  0.13573173  0.60422272    -0.10880
H101        H  0.21537932  0.22206264  0.66912854     0.08800
H102        H  0.09342367  0.21220385  0.59653998     0.06330
H103        H  0.22297092  0.10170473  0.59215637     0.06180
C104        C  0.16065325  0.77548027  0.62959237     0.03220
C105        C  0.20973973  0.79627443  0.64024583    -0.12930
C106        C  0.22894544  0.84576176  0.62832916     0.00720
C107        C  0.20071009  0.87344858  0.60401551    -0.11460
C108        C  0.15381947  0.85104506  0.59117504     0.03210
C109        C  0.13385721  0.80190029  0.60390313    -0.10880
H110        H  0.23098093  0.77618809  0.65995407     0.08800
H111        H  0.21417862  0.91308767  0.59596484     0.06330
H112        H  0.09538491  0.78690687  0.59589284     0.06180
C113        C  0.77486168  0.15626878  0.63312721     0.03220
C114        C  0.79199622  0.20790154  0.64235528    -0.12930
C115        C  0.84057581  0.22941592  0.63051691     0.00720
C116        C  0.86849160  0.20200318  0.60558594    -0.11460
C117        C  0.85025498  0.15136528  0.59484458     0.03210
C118        C  0.80395808  0.12830640  0.60902361    -0.10880
H119        H  0.76971885  0.22956640  0.66110070     0.08800
H120        H  0.90672371  0.21748323  0.59683833     0.06330
H121        H  0.79215429  0.08765139  0.60247458     0.06180
C122        C  0.84218209  0.77869722  0.63471719     0.03220
C123        C  0.86914865  0.80460291  0.60833030    -0.12930
C124        C  0.85041219  0.85366535  0.59571867     0.00720
C125        C  0.80423074  0.87662532  0.60909618    -0.11460
C126        C  0.77575584  0.85007908  0.63436392     0.03210
C127        C  0.79446090  0.80107857  0.64689209    -0.10880
H128        H  0.90697915  0.78918256  0.59947940     0.08800
H129        H  0.79117332  0.91571075  0.60042215     0.06330
H130        H  0.77326569  0.78188774  0.66737566     0.06180
C131        C  0.61903848  0.38061609  0.92646406     0.42540
N132        N  0.55661758  0.39975881  0.96091797     0.01430
C133        C  0.40490265  0.63271105  0.95870392    -0.06440
H134        H  0.60142923  0.67098720  0.97281488     0.06930
C135        C  0.59432535  0.56085273  0.08322917    -0.06790
Co136      Co  0.49993359  0.49990977  0.94053055     0.74180
N137        N  0.55741248  0.59684831  0.96576041    -0.25970
Co138      Co  0.49906938  0.59485047  0.00265107     0.74070
C139        C  0.61803087  0.61232581  0.07324614     0.42650
N140        N  0.55660603  0.43220285  0.05820871     0.01050
N141        N  0.55617630  0.59168003  0.03944133     0.01160
N142        N  0.40590986  0.56828635  0.91939533    -0.46820
H143        H  0.60422037  0.45696820  0.89563606     0.06910
N144        N  0.55859427  0.56002562  0.94237361     0.01440
N145        N  0.44069933  0.59089911  0.03948484     0.01180
C146        C  0.37848107  0.61145750  0.07366356     0.42790
N147        N  0.55624554  0.39532053  0.03482709    -0.25430
C148        C  0.40277169  0.43201569  0.91772449    -0.06350
N149        N  0.59180600  0.36212536  0.95330416    -0.46530
N150        N  0.40563942  0.62880613  0.04659635    -0.46760
C151        C  0.37809902  0.38085753  0.92725611     0.42560
N152        N  0.44187276  0.55903754  0.94237996     0.01430
N153        N  0.43956128  0.39443478  0.03525382    -0.25450
N154        N  0.55757079  0.44035808  0.93968910    -0.25940
N155        N  0.43891315  0.43114718  0.05872692     0.01070
H156        H  0.39230821  0.32255516  0.02734473     0.06960
H157        H  0.39333044  0.53614109  0.10556089     0.06990
N158        N  0.44212273  0.59602786  0.96566442    -0.25990
N159        N  0.55608457  0.55162637  0.06105557    -0.25600
N160        N  0.44075611  0.39945418  0.96113734     0.01430
C161        C  0.62066832  0.61612046  0.92865439     0.42830
C162        C  0.59620322  0.36087332  0.04036839    -0.06860
N163        N  0.43988637  0.55095167  0.06119275    -0.25600
H164        H  0.60177561  0.53666348  0.10501345     0.06980
N165        N  0.59542194  0.57043474  0.91941869    -0.46830
H166        H  0.60503676  0.32547226  0.02590266     0.06960
C167        C  0.37372699  0.37768515  0.07156672     0.42660
C168        C  0.59619237  0.43215840  0.91725065    -0.06350
Co169      Co  0.49823896  0.39588624  0.99807274     0.73820
N170        N  0.59533369  0.42496773  0.07978750    -0.46540
C171        C  0.38032894  0.61350411  0.92834796     0.42930
N172        N  0.40453225  0.36216301  0.95387872    -0.46530
Co173      Co  0.49783221  0.49122838  0.06047616     0.73890
C174        C  0.40134398  0.56012478  0.08359921    -0.06860
C175        C  0.59485724  0.63434579  0.95903341    -0.06420
N176        N  0.44134526  0.43994271  0.93981615    -0.25950
N177        N  0.59166642  0.62971929  0.04637067    -0.46710
H178        H  0.39763592  0.66932363  0.97234337     0.06940
C179        C  0.40027881  0.35853498  0.04149422    -0.06840
Cl180      Cl  0.49873830  0.49540853  0.00044966    -0.49840
C181        C  0.62291070  0.38142502  0.06977640     0.42690
H182        H  0.39552600  0.45698416  0.89624259     0.06900
N183        N  0.40082420  0.42212819  0.08116385    -0.46550
C184        C  0.34389840  0.72494004  0.13104576     0.03220
C185        C  0.29607220  0.70540908  0.14494295    -0.12930
C186        C  0.27472638  0.65568428  0.13534267     0.00720
C187        C  0.30048930  0.62619165  0.11052631    -0.11460
C188        C  0.34727842  0.64639730  0.09547016     0.03210
C189        C  0.36865067  0.69622191  0.10547580    -0.10880
H190        H  0.27742541  0.72729997  0.16507521     0.08800
H191        H  0.28576545  0.58642554  0.10413883     0.06330
H192        H  0.40685407  0.71000396  0.09565670     0.06180
C193        C  0.73373669  0.34884861  0.12939662     0.03220
C194        C  0.70505841  0.37465748  0.10423334    -0.12930
C195        C  0.65793780  0.35109293  0.09199716     0.00720
C196        C  0.63948082  0.30181904  0.10509701    -0.11460
C197        C  0.66609503  0.27721737  0.13135863     0.03210
C198        C  0.71376511  0.30028541  0.14288085    -0.10880
H199        H  0.71790739  0.41401554  0.09535645     0.08800
H200        H  0.60165711  0.28526107  0.09699387     0.06330
H201        H  0.73372821  0.28208090  0.16376353     0.06180
C202        C  0.65745969  0.72688292  0.12894699     0.03220
C203        C  0.63156830  0.69757433  0.10407157    -0.12930
C204        C  0.65037361  0.64683737  0.09459798     0.00720
C205        C  0.69620138  0.62606650  0.10917850    -0.11460
C206        C  0.72403460  0.65615306  0.13267138     0.03210
C207        C  0.70484818  0.70668214  0.14231391    -0.10880
H208        H  0.59477810  0.71251435  0.09375486     0.08800
H209        H  0.70963944  0.58603025  0.10274433     0.06330
H210        H  0.72457142  0.72820622  0.16205889     0.06180
O211        O  0.38914987  0.94490251  0.25869550    -0.80050
O212        O  0.61572208  0.05200883  0.25813116    -0.80070
O213        O  0.55821893  0.94241012  0.29832879    -0.80080
O214        O  0.44803609  0.05201791  0.30076619    -0.80020
O215        O  0.61536965  0.94802294  0.25698687    -0.80150
O216        O  0.38931351  0.04847349  0.26085872    -0.80070
O217        O  0.55921019  0.05360663  0.29975858    -0.80050
O218        O  0.44621492  0.94012822  0.29934180    -0.80090
C219        C  0.39930626  0.93364247  0.28865823     1.09640
C220        C  0.60625702  0.05957140  0.28868723     1.09520
C221        C  0.60529197  0.93780578  0.28728501     1.09660
C222        C  0.40063367  0.05686925  0.29100068     1.09540
O223        O  0.44707973  0.05678656  0.19738968    -0.80050
O224        O  0.55798840  0.94628042  0.19468362    -0.80130
O225        O  0.45145928  0.88493610  0.23579717    -0.80060
O226        O  0.55393776  0.11482438  0.23763158    -0.80040
O227        O  0.55770074  0.05876799  0.19606953    -0.80100
O228        O  0.44644350  0.94406321  0.19550682    -0.80060
O229        O  0.45064738  0.11293364  0.23890982    -0.80020
O230        O  0.55397089  0.88563933  0.23449640    -0.80090
Co231      Co  0.42522552  0.99881818  0.22819482     1.51530
Co232      Co  0.57943617  0.00113637  0.22674075     1.51690
Co233      Co  0.50262205  0.92056792  0.26698023     1.51570
Co234      Co  0.50295432  0.07609585  0.26893690     1.51470
O235        O  0.50248961  0.99911217  0.24767803    -1.41990
C236        C  0.44098437  0.10372353  0.20863296     1.09570
C237        C  0.56342704  0.89823220  0.20440205     1.09660
C238        C  0.44131377  0.89604080  0.20578945     1.09590
C239        C  0.56365268  0.10592959  0.20719653     1.09570
O240        O  0.05528623  0.54132975  0.30412392    -0.80050
O241        O  0.93976420  0.44658754  0.30105624    -0.80070
O242        O  0.94361178  0.62163359  0.26581509    -0.80080
O243        O  0.05252138  0.41213253  0.27586719    -0.80020
O244        O  0.93142528  0.55885015  0.30391090    -0.80150
O245        O  0.12503503  0.46182199  0.28459338    -0.80070
O246        O  0.95536398  0.38973296  0.26075555    -0.80050
O247        O  0.04941220  0.61240067  0.27071527    -0.80090
C248        C  0.06026519  0.59177376  0.29889549     1.09640
C249        C  0.93929371  0.39879602  0.29017895     1.09520
C250        C  0.92942647  0.60773527  0.29496347     1.09660
C251        C  0.09807898  0.41903719  0.29019789     1.09540
O252        O  0.08676559  0.45232450  0.22191604    -0.80050
O253        O  0.88115842  0.55684937  0.23963869    -0.80130
O254        O  0.05443152  0.56723720  0.20361738    -0.80060
O255        O  0.95299497  0.44778955  0.19901158    -0.80040
O256        O  0.88934271  0.45053631  0.23714499    -0.80100
O257        O  0.11079378  0.54936341  0.24288141    -0.80060
O258        O  0.03793505  0.37889655  0.21253975    -0.80020
O259        O  0.94366346  0.57369658  0.20164555    -0.80090
Co260      Co  0.06411727  0.49422150  0.26512397     1.51530
Co261      Co  0.91549323  0.50357097  0.27047321     1.51690
Co262      Co  0.99780445  0.58869571  0.23532978     1.51570
Co263      Co  0.00594518  0.43791626  0.23536137     1.51470
O264        O  0.99007022  0.51181661  0.25167722    -1.41990
C265        C  0.07996163  0.40696992  0.20675600     1.09570
C266        C  0.89497012  0.57178178  0.21048445     1.09660
C267        C  0.10175084  0.56708089  0.21406115     1.09590
C268        C  0.90393273  0.44211376  0.20735994     1.09570
C269        C  0.26209455  0.33241158  0.13031408     0.03220
C270        C  0.29089263  0.36241912  0.10612505    -0.12930
C271        C  0.34099288  0.34472107  0.09463458     0.00720
C272        C  0.36294565  0.29777119  0.10796364    -0.11460
C273        C  0.33619443  0.26938941  0.13326117     0.03210
C274        C  0.28536029  0.28599760  0.14365831    -0.10880
H275        H  0.27468823  0.39960445  0.09652346     0.08800
H276        H  0.40268509  0.28562914  0.10040724     0.06330
H277        H  0.26528683  0.26440767  0.16366665     0.06180
C278        C  0.23066714  0.15725716  0.36301082     0.03220
C279        C  0.21858982  0.21002764  0.35308217    -0.12930
C280        C  0.17398294  0.23661000  0.36640265     0.00720
C281        C  0.14321042  0.21021771  0.39120930    -0.11460
C282        C  0.15482605  0.15711289  0.40081094     0.03210
C283        C  0.19816231  0.13077067  0.38639586    -0.10880
H284        H  0.24190121  0.22871916  0.33333550     0.08800
H285        H  0.10842168  0.22972310  0.40163340     0.06330
H286        H  0.20659478  0.08947338  0.39333588     0.06180
C287        C  0.77539102  0.15443668  0.36552205     0.03220
C288        C  0.79449512  0.20453209  0.35414071    -0.12930
C289        C  0.84069625  0.22772399  0.36728272     0.00720
C290        C  0.86561478  0.20269765  0.39406754    -0.11460
C291        C  0.84645316  0.15285940  0.40606726     0.03210
C292        C  0.80147908  0.12871447  0.39166926    -0.10880
H293        H  0.77537556  0.22397991  0.33336270     0.08800
H294        H  0.90264814  0.21927540  0.40339370     0.06330
H295        H  0.78864835  0.08880914  0.39958427     0.06180
C296        C  0.15694357  0.76470594  0.37156366     0.03220
C297        C  0.20454106  0.78395637  0.35665439    -0.12930
C298        C  0.22368793  0.83660375  0.36274742     0.00720
C299        C  0.19507225  0.86950354  0.38473927    -0.11460
C300        C  0.14954782  0.84982494  0.40131949     0.03210
C301        C  0.13140124  0.79714352  0.39527775    -0.10880
H302        H  0.22543437  0.75870053  0.33916674     0.08800
H303        H  0.20763833  0.91085552  0.38863191     0.06330
H304        H  0.09552250  0.78259987  0.40771502     0.06180
C305        C  0.83569914  0.77516866  0.37363633     0.03220
C306        C  0.78932450  0.79570585  0.35965201    -0.12930
C307        C  0.77117388  0.84729661  0.36794192     0.00720
C308        C  0.79883566  0.87724605  0.39173727    -0.11460
C309        C  0.84408224  0.85579787  0.40694893     0.03210
C310        C  0.86228900  0.80460805  0.39792481    -0.10880
H311        H  0.76984621  0.77312964  0.34024399     0.08800
H312        H  0.78701111  0.91817834  0.39713834     0.06330
H313        H  0.89970742  0.78987243  0.40749342     0.06180
C314        C  0.12585743  0.11936906  0.56916138     0.42540
N315        N  0.06204179  0.10014287  0.53622881     0.01430
C316        C  0.90716194  0.86610086  0.54140663    -0.06440
H317        H  0.10115664  0.82783412  0.52484363     0.06930
C318        C  0.09586846  0.93778300  0.41305015    -0.06790
Co319      Co  0.00395402  0.99977218  0.55790861     0.74180
N320        N  0.05948841  0.90276316  0.53180589    -0.25970
Co321      Co  0.00102694  0.90487504  0.49577018     0.74070
C322        C  0.11806104  0.88578301  0.42265792     0.42650
N323        N  0.05953152  0.06914178  0.43890370     0.01050
N324        N  0.05790173  0.90814687  0.45793968     0.01160
N325        N  0.90927055  0.93044568  0.58078436    -0.46820
H326        H  0.11012919  0.04314555  0.60041965     0.06910
N327        N  0.06145694  0.93979989  0.55505877     0.01440
N328        N  0.94221039  0.90900755  0.46003333     0.01180
C329        C  0.87754843  0.89008087  0.42780253     0.42790
N330        N  0.05909257  0.10628335  0.46217664    -0.25430
C331        C  0.90815511  0.06759621  0.58264407    -0.06350
N332        N  0.09806069  0.13782063  0.54304060    -0.46530
N333        N  0.90517238  0.87204856  0.45404742    -0.46760
C334        C  0.88427269  0.11862284  0.57328092     0.42560
N335        N  0.94495926  0.94022685  0.55710625     0.01430
N336        N  0.94397266  0.10491311  0.46453321    -0.25450
N337        N  0.06270881  0.05957148  0.55746410    -0.25940
N338        N  0.94281695  0.06801183  0.44117117     0.01070
H339        H  0.89863958  0.17736472  0.47253270     0.06960
H340        H  0.89387824  0.96530947  0.39564777     0.06990
N341        N  0.94451030  0.90330239  0.53376639    -0.25990
N342        N  0.05854698  0.94806460  0.43618691    -0.25600
N343        N  0.94619874  0.09988387  0.53844962     0.01430
C344        C  0.12144447  0.88311547  0.56856082     0.42830
C345        C  0.09508872  0.14473838  0.45427830    -0.06860
N346        N  0.94208786  0.94893528  0.43835984    -0.25600
H347        H  0.10334426  0.96143466  0.39088570     0.06980
N348        N  0.09762052  0.92925414  0.57773786    -0.46830
H349        H  0.10186250  0.18162893  0.46777327     0.06960
C350        C  0.87933649  0.12157133  0.42883179     0.42660
C351        C  0.10208742  0.06786095  0.57894357    -0.06350
Co352      Co  0.00286419  0.10391692  0.50043586     0.73820
N353        N  0.09468585  0.08002636  0.41504302    -0.46540
C354        C  0.88327544  0.88491112  0.57224605     0.42930
N355        N  0.91054822  0.13703478  0.54609685    -0.46530
Co356      Co  0.00096894  0.00864211  0.43804119     0.73890
C357        C  0.90221762  0.94075254  0.41714318    -0.06860
C358        C  0.09562976  0.86480634  0.53843459    -0.06420
N359        N  0.94637379  0.05955858  0.55985858    -0.25950
N360        N  0.09189046  0.86950447  0.45032828    -0.46710
H361        H  0.89942754  0.82944368  0.52786873     0.06940
C362        C  0.90572649  0.14104531  0.45856218    -0.06840
Cl363      Cl  0.00236233  0.00431212  0.49802221    -0.49840
C364        C  0.11895687  0.12677118  0.42326361     0.42690
H365        H  0.90053616  0.04269636  0.60427098     0.06900
N366        N  0.90514079  0.07680890  0.41918315    -0.46550
C367        C  0.12347655  0.33649310  0.17058048    -0.21220
C368        C  0.12280971  0.38911698  0.18328925    -0.09260
C369        C  0.16629039  0.42382462  0.17536209     0.29600
C370        C  0.20952454  0.40589786  0.15647832    -0.21220
C371        C  0.21150672  0.35272901  0.14526702    -0.09270
C372        C  0.16745248  0.31830022  0.15192858     0.29600
F373        F  0.16738066  0.26674667  0.14091513    -0.19800
H374        H  0.09091662  0.30877653  0.17607435     0.17970
H375        H  0.24301024  0.43305557  0.15216307     0.17970
F376        F  0.16870190  0.47479731  0.18698464    -0.19790
C377        C  0.05233354  0.67162056  0.33488176    -0.21220
C378        C  0.08265975  0.62799008  0.32421264    -0.09260
C379        C  0.13694712  0.62630291  0.33245110     0.29600
C380        C  0.16056050  0.66923200  0.34974092    -0.21220
C381        C  0.13046070  0.71466451  0.35891317    -0.09270
C382        C  0.07540809  0.71444410  0.35195145     0.29600
F383        F  0.04450375  0.75769562  0.35876912    -0.19800
H384        H  0.01097248  0.67402971  0.32825819     0.17970
H385        H  0.20289915  0.66795612  0.35472285     0.17970
F386        F  0.16796038  0.58542341  0.32148731    -0.19790
C387        C  0.91699573  0.70390239  0.30950151    -0.21220
C388        C  0.90755081  0.64933464  0.31727242    -0.09260
C389        C  0.87554409  0.63616414  0.34514370     0.29600
C390        C  0.85306877  0.67715918  0.36438920    -0.21220
C391        C  0.86310982  0.73133160  0.35635861    -0.09270
C392        C  0.89583901  0.74442125  0.32911779     0.29600
F393        F  0.90599172  0.79670238  0.32094303    -0.19800
H394        H  0.94137769  0.71537144  0.28825788     0.17970
H395        H  0.82702812  0.66675750  0.38506482     0.17970
F396        F  0.86396844  0.58405429  0.35290553    -0.19790
C397        C  0.90566457  0.36190223  0.34457407    -0.21220
C398        C  0.91666934  0.35435456  0.31066900    -0.09260
C399        C  0.90387585  0.30445900  0.29622507     0.29600
C400        C  0.87960155  0.26385916  0.31509152    -0.21220
C401        C  0.86778048  0.27167285  0.34870560    -0.09270
C402        C  0.88172155  0.32069948  0.36357099     0.29600
F403        F  0.87069441  0.32925272  0.39605132    -0.19800
H404        H  0.91523578  0.39982594  0.35632908     0.17970
H405        H  0.86977636  0.22596464  0.30333984     0.17970
F406        F  0.91347858  0.29503783  0.26365675    -0.19790
C407        C  0.17133179  0.37336294  0.32215314    -0.21220
C408        C  0.11743881  0.37606419  0.31294708    -0.09260
C409        C  0.08228984  0.33503329  0.32422927     0.29600
C410        C  0.10078801  0.29169180  0.34278793    -0.21220
C411        C  0.15489672  0.28745420  0.35074206    -0.09270
C412        C  0.19003769  0.32943481  0.34074707     0.29600
F413        F  0.24247912  0.32783051  0.34866633    -0.19800
H414        H  0.19935746  0.40433694  0.31409119     0.17970
H415        H  0.07276037  0.25997000  0.34965429     0.17970
F416        F  0.02983606  0.33563902  0.31674196    -0.19790
C417        C  0.39705146  0.19261868  0.20398998    -0.21220
C418        C  0.41743470  0.14680369  0.18816737    -0.09260
C419        C  0.41209149  0.14211947  0.15363123     0.29600
C420        C  0.38597372  0.18227658  0.13563952    -0.21220
C421        C  0.36417737  0.22697893  0.15186538    -0.09270
C422        C  0.37057897  0.23213807  0.18615968     0.29600
F423        F  0.35184694  0.27591845  0.20242029    -0.19800
H424        H  0.40058040  0.19754955  0.23049639     0.17970
H425        H  0.38196075  0.17811489  0.10911204     0.17970
F426        F  0.43183870  0.09892185  0.13728492    -0.19790
C427        C  0.73068544  0.86733132  0.31348831    -0.21220
C428        C  0.72856597  0.87220826  0.34804795    -0.09260
C429        C  0.68609029  0.90047162  0.36271469     0.29600
C430        C  0.64589566  0.92219022  0.34295000    -0.21220
C431        C  0.64799442  0.91657295  0.30838018    -0.09270
C432        C  0.69095702  0.88895988  0.29385028     0.29600
F433        F  0.69385778  0.88115268  0.26065439    -0.19800
H434        H  0.76340558  0.84658726  0.30151938     0.17970
H435        H  0.61317819  0.94335121  0.35461795     0.17970
F436        F  0.68267149  0.90575908  0.39606464    -0.19790
C437        C  0.69681626  0.09906917  0.29413436    -0.21220
C438        C  0.65001516  0.07971564  0.30973170    -0.09260
C439        C  0.64581533  0.08225648  0.34448667     0.29600
C440        C  0.68730731  0.10528031  0.36289105    -0.21220
C441        C  0.73295387  0.12652959  0.34685936    -0.09270
C442        C  0.73767869  0.12220473  0.31231754     0.29600
F443        F  0.78202582  0.14037889  0.29599420    -0.19800
H444        H  0.70159062  0.09749012  0.26748264     0.17970
H445        H  0.68322807  0.10784978  0.38954677     0.17970
F446        F  0.60178255  0.06300889  0.36061540    -0.19790
C447        C  0.32732010  0.14863871  0.34939552    -0.21220
C448        C  0.27509847  0.12834684  0.34715510    -0.09260
C449        C  0.26533795  0.08140922  0.32881167     0.29600
C450        C  0.30703927  0.05674498  0.31164744    -0.21220
C451        C  0.35909409  0.07774181  0.31324537    -0.09270
C452        C  0.36928480  0.12318403  0.33287942     0.29600
F453        F  0.41905573  0.14506071  0.33429229    -0.19800
H454        H  0.33534973  0.18471305  0.36353502     0.17970
H455        H  0.29853657  0.02194187  0.29645439     0.17970
F456        F  0.21508719  0.06109571  0.32615335    -0.19790
C457        C  0.32086449  0.87289233  0.29313505    -0.21220
C458        C  0.35695125  0.90754631  0.30892571    -0.09260
C459        C  0.35049138  0.91731267  0.34289006     0.29600
C460        C  0.30784069  0.89320866  0.36045406    -0.21220
C461        C  0.27104959  0.85900410  0.34446209    -0.09270
C462        C  0.27845063  0.84895800  0.31046770     0.29600
F463        F  0.24338192  0.81819655  0.29334119    -0.19800
H464        H  0.32516744  0.86465907  0.26693250     0.17970
H465        H  0.30331739  0.90167270  0.38658930     0.17970
F466        F  0.38382200  0.95174890  0.35871350    -0.19790
C467        C  0.81997688  0.65636472  0.14855239    -0.21220
C468        C  0.76926618  0.63204674  0.15016577    -0.09260
C469        C  0.76110299  0.58610497  0.17006139     0.29600
C470        C  0.80262585  0.56618889  0.18911521    -0.21220
C471        C  0.85336363  0.59051098  0.18779608    -0.09270
C472        C  0.86210369  0.63534043  0.16687682     0.29600
F473        F  0.91032829  0.66068494  0.16563492    -0.19800
H474        H  0.82666176  0.69199149  0.13340160     0.17970
H475        H  0.79484023  0.53231286  0.20545693     0.17970
F476        F  0.71228176  0.56208039  0.17225435    -0.19790
C477        C  0.55591283  0.81107756  0.17483355    -0.21220
C478        C  0.58547255  0.85759931  0.18189143    -0.09260
C479        C  0.63810172  0.86258389  0.16987661     0.29600
C480        C  0.66098385  0.82081491  0.15155960    -0.21220
C481        C  0.63134984  0.77396148  0.14451263    -0.09270
C482        C  0.57804597  0.77000675  0.15581340     0.29600
F483        F  0.54836667  0.72493540  0.15040623    -0.19800
H484        H  0.51614415  0.80576729  0.18483437     0.17970
H485        H  0.70223086  0.82446605  0.14350502     0.17970
F486        F  0.66836020  0.90626113  0.17767199    -0.19790
C487        C  0.60100508  0.19887687  0.20156490    -0.21220
C488        C  0.58688866  0.14996514  0.18641370    -0.09260
C489        C  0.59837317  0.14346880  0.15244162     0.29600
C490        C  0.62413126  0.18490282  0.13445519    -0.21220
C491        C  0.63958147  0.23286533  0.15011704    -0.09270
C492        C  0.62713930  0.23970920  0.18376788     0.29600
F493        F  0.63936467  0.28647018  0.19935697    -0.19800
H494        H  0.59260531  0.20547113  0.22757104     0.17970
H495        H  0.63270712  0.17932392  0.10837515     0.17970
F496        F  0.58525182  0.09717676  0.13665180    -0.19790
C497        C  0.80851364  0.42098781  0.19631055    -0.21220
C498        C  0.86168750  0.42225646  0.18443324    -0.09260
C499        C  0.87212686  0.40160073  0.15258501     0.29600
C500        C  0.83024694  0.37918400  0.13383132    -0.21220
C501        C  0.77774836  0.37709839  0.14661960    -0.09270
C502        C  0.76734389  0.39894473  0.17780895     0.29600
F503        F  0.71714072  0.39773836  0.19082149    -0.19800
H504        H  0.79838046  0.43622764  0.22060948     0.17970
H505        H  0.83899452  0.36205946  0.10980884     0.17970
F506        F  0.92259715  0.40121195  0.14010341    -0.19790
C507        C  0.14183341  0.59130107  0.15892826    -0.21220
C508        C  0.14591578  0.58906848  0.19357700    -0.09260
C509        C  0.19271122  0.60815916  0.20860792     0.29600
C510        C  0.23426357  0.62934733  0.18933175    -0.21220
C511        C  0.23025901  0.63174623  0.15477298    -0.09270
C512        C  0.18396837  0.61203329  0.13956257     0.29600
F513        F  0.17904707  0.61409174  0.10617854    -0.19800
H514        H  0.10623586  0.57657800  0.14686192     0.17970
H515        H  0.26988180  0.64393961  0.20146188     0.17970
F516        F  0.19793127  0.60767685  0.24200854    -0.19790
C517        C  0.38453528  0.81795093  0.13287057    -0.21220
C518        C  0.37243450  0.76848240  0.14833307    -0.09260
C519        C  0.38550371  0.76076961  0.18165002     0.29600
C520        C  0.40834968  0.80233333  0.19955952    -0.21220
C521        C  0.41934656  0.85268599  0.18475092    -0.09270
C522        C  0.40772043  0.86010066  0.15098255     0.29600
F523        F  0.41786400  0.90794232  0.13565687    -0.19800
H524        H  0.37472714  0.82430609  0.10711838     0.17970
H525        H  0.41702533  0.79488728  0.22537568     0.17970
F526        F  0.37570175  0.71282612  0.19703566    -0.19790
C527        C  0.37236484  0.17855359  0.86130372    -0.21220
C528        C  0.36801020  0.23042889  0.84781502    -0.09260
C529        C  0.38713161  0.24067192  0.81560864     0.29600
C530        C  0.40886953  0.19930328  0.79681606    -0.21220
C531        C  0.41274060  0.14686569  0.80983282    -0.09270
C532        C  0.39441406  0.13683796  0.84247472     0.29600
F533        F  0.39645499  0.08669991  0.85594404    -0.19800
H534        H  0.35744930  0.17012410  0.88607419     0.17970
H535        H  0.42281512  0.20851921  0.77193721     0.17970
F536        F  0.38454854  0.29091266  0.80228011    -0.19790
C537        C  0.44053534  0.80561041  0.81737741    -0.21220
C538        C  0.41376391  0.85473019  0.81478837    -0.09260
C539        C  0.36472287  0.86132825  0.83143153     0.29600
C540        C  0.34198473  0.81842876  0.84944768    -0.21220
C541        C  0.36864468  0.76913898  0.85180969    -0.09270
C542        C  0.41870040  0.76337963  0.83621112     0.29600
F543        F  0.44504455  0.71589158  0.83768391    -0.19800
H544        H  0.47786639  0.79958174  0.80425035     0.17970
H545        H  0.30318013  0.82325330  0.86106521     0.17970
F546        F  0.33727402  0.90797055  0.82846688    -0.19790
C547        C  0.60412236  0.80649052  0.79653270    -0.21220
C548        C  0.58037850  0.85051270  0.81232781    -0.09260
C549        C  0.58127113  0.85303928  0.84713848     0.29600
C550        C  0.60647804  0.81242524  0.86546064    -0.21220
C551        C  0.63155377  0.76929219  0.84930335    -0.09270
C552        C  0.62920301  0.76647172  0.81459754     0.29600
F553        F  0.65009813  0.72420610  0.79792430    -0.19800
H554        H  0.60391018  0.80307554  0.76981774     0.17970
H555        H  0.60703431  0.81497771  0.89220026     0.17970
F556        F  0.55752100  0.89420484  0.86340763    -0.19790
C557        C  0.69100397  0.10601667  0.70533602    -0.21220
C558        C  0.64813819  0.08059267  0.68962875    -0.09260
C559        C  0.64793851  0.07801105  0.65482977     0.29600
C560        C  0.68956301  0.10201421  0.63630117    -0.21220
C561        C  0.73139741  0.12918603  0.65223773    -0.09270
C562        C  0.73207633  0.12993298  0.68702825     0.29600
F563        F  0.77297605  0.15304482  0.70359254    -0.19800
H564        H  0.69246001  0.10832146  0.73208257     0.17970
H565        H  0.68869749  0.10022329  0.60953820     0.17970
F566        F  0.60799090  0.05211834  0.63880813    -0.19790
C567        C  0.69695832  0.93615816  0.69334007    -0.21220
C568        C  0.64428722  0.92018187  0.68658390    -0.09260
C569        C  0.63488900  0.88372449  0.66065804     0.29600
C570        C  0.67785790  0.86175947  0.64305515    -0.21220
C571        C  0.73036481  0.87661637  0.65068276    -0.09270
C572        C  0.73967179  0.91482988  0.67542756     0.29600
F573        F  0.79025410  0.92986410  0.68308283    -0.19800
H574        H  0.70512319  0.96441661  0.71302425     0.17970
H575        H  0.67030723  0.83221662  0.62400002     0.17970
F576        F  0.58460421  0.86690500  0.65362470    -0.19790
C577        C  0.29988319  0.92376735  0.69398285    -0.21220
C578        C  0.35369231  0.91375821  0.68633117    -0.09260
C579        C  0.36641410  0.88318087  0.65807779     0.29600
C580        C  0.32565713  0.86233289  0.63835451    -0.21220
C581        C  0.27217040  0.87248450  0.64629524    -0.09270
C582        C  0.25948125  0.90370496  0.67401234     0.29600
F583        F  0.20779322  0.91339553  0.68224686    -0.19800
H584        H  0.28904825  0.94751282  0.71539642     0.17970
H585        H  0.33567942  0.83740379  0.61730783     0.17970
F586        F  0.41787067  0.87187287  0.65017513    -0.19790
C587        C  0.35070458  0.14215998  0.68716585    -0.21220
C588        C  0.36167441  0.08747109  0.68285676    -0.09260
C589        C  0.33403507  0.05878571  0.65873286     0.29600
C590        C  0.29101810  0.08218954  0.64254505    -0.21220
C591        C  0.27752872  0.13674970  0.64767563    -0.09270
C592        C  0.31079558  0.16726656  0.66883608     0.29600
F593        F  0.30610199  0.22143579  0.67162399    -0.19800
H594        H  0.37348038  0.16565936  0.70468144     0.17970
H595        H  0.26809497  0.05631503  0.62659817     0.17970
F596        F  0.34827344  0.00811278  0.65075228    -0.19790
C597        C  0.65882956  0.17788965  0.84222830    -0.21220
C598        C  0.62976820  0.22385672  0.85114799    -0.09260
C599        C  0.57583002  0.22728970  0.84188017     0.29600
C600        C  0.55227987  0.18633090  0.82336225    -0.21220
C601        C  0.58124252  0.14068060  0.81448970    -0.09270
C602        C  0.63468542  0.13640298  0.82422129     0.29600
F603        F  0.66426328  0.09350693  0.81473383    -0.19800
H604        H  0.70048813  0.17459247  0.84873273     0.17970
H605        H  0.51175112  0.19096239  0.81528621     0.17970
F606        F  0.54667545  0.27167386  0.84894520    -0.19790
C607        C  0.18289876  0.38517092  0.86212931    -0.21220
C608        C  0.23094193  0.37101396  0.84638239    -0.09260
C609        C  0.23737587  0.38089670  0.81235588     0.29600
C610        C  0.19594808  0.40274352  0.79421752    -0.21220
C611        C  0.14700980  0.41554225  0.80944466    -0.09270
C612        C  0.14094375  0.40704782  0.84381599     0.29600
F613        F  0.09457485  0.41911871  0.85964009    -0.19800
H614        H  0.17745464  0.37796992  0.88841969     0.17970
H615        H  0.20222978  0.40898775  0.76790678     0.17970
F616        F  0.28397294  0.36938774  0.79656722    -0.19790
C617        C  0.24288663  0.58362715  0.82507188    -0.21220
C618        C  0.23205553  0.62348964  0.84852534    -0.09260
C619        C  0.17917767  0.63910671  0.85445639     0.29600
C620        C  0.13756856  0.61523615  0.83676261    -0.21220
C621        C  0.14852776  0.57674399  0.81229789    -0.09270
C622        C  0.20161854  0.56086603  0.80674269     0.29600
F623        F  0.21375379  0.52407610  0.78319953    -0.19800
H624        H  0.28360896  0.57136777  0.82028202     0.17970
H625        H  0.09709079  0.62861568  0.84109460     0.17970
F626        F  0.16805900  0.67806421  0.87685865    -0.19790
C627        C  0.81283052  0.60806526  0.79633967    -0.21220
C628        C  0.85707447  0.58588384  0.81226948    -0.09260
C629        C  0.85877713  0.58674948  0.84709053     0.29600
C630        C  0.81667054  0.60971631  0.86529212    -0.21220
C631        C  0.77289490  0.63243292  0.84896659    -0.09270
C632        C  0.77124546  0.63054490  0.81427309     0.29600
F633        F  0.72857245  0.64916459  0.79748519    -0.19800
H634        H  0.81004920  0.60801611  0.76960504     0.17970
H635        H  0.81843811  0.61028555  0.89205639     0.17970
F636        F  0.90045964  0.56504690  0.86346272    -0.19790
C637        C  0.86286738  0.36991787  0.82978909    -0.21220
C638        C  0.85452106  0.41771556  0.81188826    -0.09260
C639        C  0.80348079  0.44063425  0.81187036     0.29600
C640        C  0.76171108  0.41643695  0.82979261    -0.21220
C641        C  0.76960554  0.36785952  0.84686113    -0.09270
C642        C  0.82043244  0.34451402  0.84668431     0.29600
F643        F  0.82881586  0.29713947  0.86265005    -0.19800
H644        H  0.90165769  0.35102976  0.82943679     0.17970
H645        H  0.72261541  0.43468223  0.82950100     0.17970
F646        F  0.79373262  0.48587334  0.79407257    -0.19790
C647        C  0.91635566  0.64891881  0.65486292    -0.21220
C648        C  0.91803564  0.65128512  0.68958938    -0.09260
C649        C  0.89408760  0.69526727  0.70570182     0.29600
C650        C  0.86943385  0.73564595  0.68755107    -0.21220
C651        C  0.86757841  0.73357876  0.65291092    -0.09270
C652        C  0.89161741  0.68985078  0.63658864     0.29600
F653        F  0.89018106  0.68605371  0.60313552    -0.19800
H654        H  0.93418055  0.61541992  0.64188323     0.17970
H655        H  0.85215086  0.76919012  0.70077935     0.17970
F656        F  0.89313051  0.69894348  0.73920897    -0.19790
C657        C  0.10897637  0.69369783  0.70247221    -0.21220
C658        C  0.08577792  0.64874202  0.68721698    -0.09260
C659        C  0.08557259  0.64625854  0.65239933     0.29600
C660        C  0.10948083  0.68770856  0.63347937    -0.21220
C661        C  0.13420573  0.73173194  0.64901757    -0.09270
C662        C  0.13275850  0.73466235  0.68378807     0.29600
F663        F  0.15356961  0.77772706  0.69991649    -0.19800
H664        H  0.10951311  0.69701622  0.72918908     0.17970
H665        H  0.10944557  0.68504541  0.60673750     0.17970
F666        F  0.06216028  0.60419362  0.63669295    -0.19790
C667        C  0.15393690  0.31999924  0.65140643    -0.21220
C668        C  0.12727756  0.27026750  0.64879777    -0.09260
C669        C  0.07605499  0.26394909  0.66292666     0.29600
C670        C  0.05302214  0.30621626  0.68062382    -0.21220
C671        C  0.07991438  0.35578025  0.68343046    -0.09270
C672        C  0.13022235  0.36273705  0.66826918     0.29600
F673        F  0.15787446  0.40964636  0.67165795    -0.19800
H674        H  0.19352900  0.32535525  0.64079571     0.17970
H675        H  0.01470213  0.29991246  0.69272848     0.17970
F676        F  0.04958237  0.21611230  0.66104889    -0.19790
C677        C  0.89169182  0.31202017  0.70166447    -0.21220
C678        C  0.91453764  0.35718496  0.68586082    -0.09260
C679        C  0.91405790  0.36014359  0.65104116     0.29600
C680        C  0.89015759  0.31856559  0.63270839    -0.21220
C681        C  0.86622320  0.27407234  0.64893443    -0.09270
C682        C  0.86829134  0.27101352  0.68364510     0.29600
F683        F  0.84904020  0.22743516  0.70042641    -0.19800
H684        H  0.89167765  0.30815615  0.72838696     0.17970
H685        H  0.88989723  0.32127998  0.60595422     0.17970
F686        F  0.93719677  0.40244241  0.63481021    -0.19790
loop_ 
_geom_bond_atom_site_label_1 
_geom_bond_atom_site_label_2 
_geom_bond_distance 
_geom_bond_site_symmetry_2 
_ccdc_geom_bond_type 
O1            C9   1.273       .  A
O1          Co21   2.025       .  S
O2           C10   1.273       .  A
O2          Co22   2.023       .  S
O3           C11   1.264       .  A
O3          Co23   1.974   1_455  S
O4           C12   1.264       .  A
O4          Co24   1.976   1_655  S
O5           C11   1.271       .  A
O5          Co22   2.016       .  S
O6           C12   1.271       .  A
O6          Co21   2.012       .  S
O7           C10   1.264       .  A
O7          Co24   1.964       .  S
O8            C9   1.265       .  A
O8          Co23   1.964       .  S
C9          C638   1.471       .  S
C10         C621   1.475       .  S
C11         C611   1.483       .  S
C12         C628   1.480       .  S
O13          C26   1.266       .  A
O13         Co21   1.976       .  S
O14          C27   1.264       .  A
O14         Co22   1.964       .  S
O15          C28   1.271       .  A
O15         Co23   2.010       .  S
O16          C29   1.272       .  A
O16         Co24   2.016       .  S
O17          C29   1.262       .  A
O17         Co22   1.970       .  S
O18          C28   1.263       .  A
O18         Co21   1.974       .  S
O19          C26   1.272       .  A
O19         Co24   2.019   1_655  S
O20          C27   1.271       .  A
O20         Co23   2.022   1_455  S
Co21         O25   2.098   1_655  S
Co22         O25   2.096       .  S
Co23         O25   2.099   1_655  S
Co24         O25   2.100       .  S
C26         C648   1.484       .  S
C27         C671   1.469       .  S
C28         C678   1.478       .  S
C29         C658   1.478       .  S
C30         C641   1.475       .  S
C30          C31   1.404       .  A
C30          C35   1.400       .  A
C31          C32   1.407       .  A
C31          H36   1.084       .  S
C32         C598   1.485       .  S
C32          C33   1.406       .  A
C33          C34   1.402       .  A
C33          H37   1.084       .  S
C34         C131   1.467       .  S
C34          C35   1.399       .  A
C35          H38   1.084       .  S
O39          C47   1.263       .  A
O39         Co59   1.960   1_545  S
O40          C48   1.262       .  A
O40         Co60   1.961       .  S
O41          C49   1.271       .  A
O41         Co61   2.023       .  S
O42          C50   1.270       .  A
O42         Co62   2.014       .  S
O43          C49   1.260       .  A
O43         Co60   1.964   1_545  S
O44          C50   1.261       .  A
O44         Co59   1.974       .  S
O45          C48   1.273       .  A
O45         Co62   2.024       .  S
O46          C47   1.275       .  A
O46         Co61   2.035       .  S
C47         C601   1.470       .  S
C48         C538   1.469       .  S
C49         C531   1.483       .  S
C50         C548   1.481       .  S
O51          C64   1.274       .  A
O51         Co59   2.027       .  S
O52          C65   1.274       .  A
O52         Co60   2.038   1_545  S
O53          C66   1.260       .  A
O53         Co61   1.968       .  S
O54          C67   1.260       .  A
O54         Co62   1.961       .  S
O55          C67   1.269       .  A
O55         Co60   2.014       .  S
O56          C66   1.270       .  A
O56         Co59   2.015   1_545  S
O57          C64   1.263       .  A
O57         Co62   1.964       .  S
O58          C65   1.261       .  A
O58         Co61   1.968       .  S
Co59         O63   2.102       .  S
Co60         O63   2.103       .  S
Co61         O63   2.102   1_545  S
Co62         O63   2.102       .  S
C64         C568   1.477       .  S
C65         C588   1.473       .  S
C66         C558   1.475       .  S
C67         C578   1.475       .  S
C68         C541   1.476       .  S
C68          C69   1.404       .  A
C68          C73   1.402       .  A
C69          C70   1.403       .  A
C69          H74   1.085       .  S
C70         C618   1.471       .  S
C70          C71   1.400       .  A
C71          C72   1.400       .  A
C71          H75   1.084       .  S
C72         C171   1.463       .  S
C72          C73   1.401       .  A
C73          H76   1.084       .  S
C77         C551   1.486       .  S
C77          C78   1.403       .  A
C77          C82   1.403       .  A
C78          C79   1.404       .  A
C78          H83   1.084       .  S
C79         C631   1.483       .  S
C79          C80   1.403       .  A
C80          C81   1.403       .  A
C80          H84   1.084       .  S
C81         C161   1.466       .  S
C81          C82   1.406       .  A
C82          H85   1.084       .  S
C86         C608   1.478       .  S
C86          C87   1.401       .  A
C86          C91   1.402       .  A
C87          C88   1.399       .  A
C87          H92   1.085       .  S
C88         C528   1.474       .  S
C88          C89   1.402       .  A
C89          C90   1.406       .  A
C89          H93   1.084       .  S
C90         C151   1.469       .  S
C90          C91   1.406       .  A
C91          H94   1.084       .  S
C95         C591   1.510       .  S
C95          C96   1.414       .  A
C95         C100   1.414       .  A
C96          C97   1.404       .  A
C96         H101   1.080       .  S
C97         C668   1.477       .  S
C97          C98   1.398       .  A
C98          C99   1.397       .  A
C98         H102   1.084       .  S
C99         C314   1.467       .  S
C99         C100   1.401       .  A
C100        H103   1.080       .  S
C104        C661   1.483       .  S
C104        C105   1.403       .  A
C104        C109   1.406       .  A
C105        C106   1.396       .  A
C105        H110   1.085       .  S
C106        C581   1.466       .  S
C106        C107   1.399       .  A
C107        C108   1.401       .  A
C107        H111   1.084       .  S
C108        C344   1.466       .  S
C108        C109   1.407       .  A
C109        H112   1.084       .  S
C113        C561   1.482       .  S
C113        C114   1.402       .  A
C113        C118   1.402       .  A
C114        C115   1.403       .  A
C114        H119   1.084       .  S
C115        C681   1.484       .  S
C115        C116   1.403       .  A
C116        C117   1.406       .  A
C116        H120   1.084       .  S
C117        C334   1.467       .  S
C117        C118   1.404       .  A
C118        H121   1.084       .  S
C122        C651   1.488       .  S
C122        C123   1.406       .  A
C122        C127   1.408       .  A
C123        C124   1.404       .  A
C123        H128   1.084       .  S
C124        C354   1.464       .  S
C124        C125   1.399       .  A
C125        C126   1.398       .  A
C125        H129   1.084       .  S
C126        C571   1.471       .  S
C126        C127   1.402       .  A
C127        H130   1.084       .  S
C131        C168   1.455       .  S
C131        N149   1.351       .  A
N132        N149   1.326       .  A
N132        N154   1.320       .  A
N132       Co169   2.086       .  S
C133        C171   1.460       .  S
C133        H178   1.081       .  S
C133        N158   1.341       .  A
H134        C175   1.081       .  S
C135        C139   1.457       .  S
C135        H164   1.082       .  S
C135        N159   1.339       .  A
Co136       N154   2.076       .  S
Co136       N144   2.087       .  S
Co136       N176   2.081       .  S
Co136       N152   2.077       .  S
Co136      Cl180   2.424   1_556  S
N137        C175   1.340       .  A
N137        N144   1.319       .  A
N137       Co138   2.077   1_556  S
Co138       N141   2.077       .  S
Co138       N158   2.079   1_554  S
Co138       N145   2.077       .  S
Co138      Cl180   2.470       .  S
C139        C204   1.465       .  S
C139        N177   1.349       .  A
N140        N147   1.320       .  A
N140        N170   1.325       .  A
N140       Co173   2.089       .  S
N141        N159   1.320       .  A
N141        N177   1.324       .  A
N142        C171   1.347       .  A
N142        N152   1.322       .  A
H143        C168   1.082       .  S
N144        N165   1.324       .  A
N145        N163   1.320       .  A
N145        N150   1.324       .  A
C146        C174   1.458       .  S
C146        C188   1.465       .  S
C146        N150   1.348       .  A
N147        C162   1.343       .  A
N147       Co169   2.090   1_554  S
C148        C151   1.455       .  S
C148        H182   1.082       .  S
C148        N176   1.337       .  A
C151        N172   1.352       .  A
N152        N158   1.319       .  A
N153        C179   1.342       .  A
N153        N155   1.319       .  A
N153       Co169   2.091   1_554  S
N154        C168   1.337       .  A
N155        N183   1.326       .  A
N155       Co173   2.091       .  S
H156        C179   1.081       .  S
H157        C174   1.082       .  S
N159       Co173   2.083       .  S
N160        N172   1.327       .  A
N160        N176   1.320       .  A
N160       Co169   2.088       .  S
C161        C175   1.458       .  S
C161        N165   1.350       .  A
C162        C181   1.463       .  S
C162        H166   1.082       .  S
N163        C174   1.339       .  A
N163       Co173   2.085       .  S
C167        C179   1.463       .  S
C167        C271   1.474       .  S
C167        N183   1.351       .  A
Co169      Cl180   2.472   1_556  S
N170        C181   1.350       .  A
Co173      Cl180   2.428       .  S
C181        C195   1.472       .  S
C184        C518   1.474       .  S
C184        C185   1.399       .  A
C184        C189   1.401       .  A
C185        C186   1.399       .  A
C185        H190   1.085       .  S
C186        C511   1.475       .  S
C186        C187   1.401       .  A
C187        C188   1.402       .  A
C187        H191   1.084       .  S
C188        C189   1.406       .  A
C189        H192   1.084       .  S
C193        C501   1.484       .  S
C193        C194   1.407       .  A
C193        C198   1.405       .  A
C194        C195   1.409       .  A
C194        H199   1.084       .  S
C195        C196   1.402       .  A
C196        C197   1.400       .  A
C196        H200   1.084       .  S
C197        C491   1.481       .  S
C197        C198   1.405       .  A
C198        H201   1.085       .  S
C202        C481   1.484       .  S
C202        C203   1.405       .  A
C202        C207   1.406       .  A
C203        C204   1.403       .  A
C203        H208   1.084       .  S
C204        C205   1.398       .  A
C205        C206   1.400       .  A
C205        H209   1.084       .  S
C206        C468   1.473       .  S
C206        C207   1.403       .  A
C207        H210   1.084       .  S
O211        C219   1.271       .  A
O211       Co231   2.015       .  S
O212        C220   1.271       .  A
O212       Co232   2.013       .  S
O213        C221   1.263       .  A
O213       Co233   1.968       .  S
O214        C222   1.263       .  A
O214       Co234   1.960       .  S
O215        C221   1.271       .  A
O215       Co232   2.018   1_565  S
O216        C222   1.272       .  A
O216       Co231   2.021   1_545  S
O217        C220   1.263       .  A
O217       Co234   1.974       .  S
O218        C219   1.266       .  A
O218       Co233   1.981       .  S
C219        C458   1.476       .  S
C220        C438   1.480       .  S
C221        C431   1.475       .  S
C222        C451   1.468       .  S
O223        C236   1.263       .  A
O223       Co231   1.967   1_545  S
O224        C237   1.263       .  A
O224       Co232   1.961   1_565  S
O225        C238   1.271       .  A
O225       Co233   2.011       .  S
O226        C239   1.273       .  A
O226       Co234   2.021       .  S
O227        C239   1.264       .  A
O227       Co232   1.972       .  S
O228        C238   1.265       .  A
O228       Co231   1.973       .  S
O229        C236   1.272       .  A
O229       Co234   2.018       .  S
O230        C237   1.274       .  A
O230       Co233   2.032       .  S
Co231       O235   2.098       .  S
Co232       O235   2.097   1_545  S
Co233       O235   2.096       .  S
Co234       O235   2.100   1_545  S
C236        C418   1.479       .  S
C237        C478   1.470       .  S
C238        C521   1.481       .  S
C239        C488   1.485       .  S
O240        C248   1.273       .  A
O240       Co260   1.980       .  S
O241        C249   1.267       .  A
O241       Co261   1.978       .  S
O242        C250   1.272       .  A
O242       Co262   2.007       .  S
O243        C251   1.296       .  A
O243       Co263   2.121       .  S
O244        C250   1.266       .  A
O244       Co261   1.973       .  S
O245        C251   1.271       .  A
O245       Co260   1.908       .  S
O246        C249   1.273       .  A
O246       Co263   2.005   1_655  S
O247        C248   1.279       .  A
O247       Co262   2.025   1_455  S
C248        C378   1.478       .  S
C249        C398   1.480       .  S
C250        C388   1.480       .  S
C251        C408   1.492       .  S
O252        C265   1.296       .  A
O252       Co260   2.113       .  S
O253        C266   1.277       .  A
O253       Co261   2.017       .  S
O254        C267   1.263       .  A
O254       Co262   1.981   1_455  S
O255        C268   1.278       .  A
O255       Co263   2.006   1_655  S
O256        C268   1.273       .  A
O256       Co261   2.000       .  S
O257        C267   1.267       .  A
O257       Co260   1.995       .  S
O258        C265   1.276       .  A
O258       Co263   1.913       .  S
O259        C266   1.268       .  A
O259       Co262   1.968       .  S
Co260       O264   1.991   1_455  S
Co261       O264   2.018       .  S
Co262       O264   2.023       .  S
Co263       O264   1.995   1_455  S
C265        C368   1.497       .  S
C266        C471   1.473       .  S
C267        C508   1.474       .  S
C268        C498   1.497       .  S
C269        C371   1.492       .  S
C269        C270   1.413       .  A
C269        C274   1.404       .  A
C270        C271   1.409       .  A
C270        H275   1.083       .  S
C271        C272   1.401       .  A
C272        C273   1.400       .  A
C272        H276   1.084       .  S
C273        C421   1.477       .  S
C273        C274   1.403       .  A
C274        H277   1.084       .  S
C278        C448   1.473       .  S
C278        C279   1.404       .  A
C278        C283   1.398       .  A
C279        C280   1.407       .  A
C279        H284   1.083       .  S
C280        C411   1.494       .  S
C280        C281   1.412       .  A
C281        C282   1.406       .  A
C281        H285   1.084       .  S
C282        C364   1.470       .  S
C282        C283   1.396       .  A
C283        H286   1.084       .  S
C287        C441   1.480       .  S
C287        C288   1.401       .  A
C287        C292   1.403       .  A
C288        C289   1.399       .  A
C288        H293   1.085       .  S
C289        C401   1.476       .  S
C289        C290   1.401       .  A
C290        C291   1.404       .  A
C290        H294   1.084       .  S
C291        C350   1.466       .  S
C291        C292   1.405       .  A
C292        H295   1.084       .  S
C296        C381   1.498       .  S
C296        C297   1.409       .  A
C296        C301   1.408       .  A
C297        C298   1.412       .  A
C297        H302   1.082       .  S
C298        C461   1.492       .  S
C298        C299   1.406       .  A
C299        C300   1.399       .  A
C299        H303   1.084       .  S
C300        C322   1.473       .  S
C300        C301   1.404       .  A
C301        H304   1.083       .  S
C305        C391   1.468       .  S
C305        C306   1.397       .  A
C305        C310   1.398       .  A
C306        C307   1.404       .  A
C306        H311   1.085       .  S
C307        C428   1.482       .  S
C307        C308   1.404       .  A
C308        C309   1.404       .  A
C308        H312   1.084       .  S
C309        C329   1.466       .  S
C309        C310   1.403       .  A
C310        H313   1.084       .  S
C314        C351   1.456       .  S
C314        N332   1.352       .  A
N315        N332   1.326       .  A
N315        N337   1.320       .  A
N315       Co352   2.086       .  S
C316        C354   1.458       .  S
C316        H361   1.081       .  S
C316        N341   1.341       .  A
H317        C358   1.081       .  S
C318        C322   1.462       .  S
C318        H347   1.082       .  S
C318        N342   1.343       .  A
Co319       N337   2.081   1_565  S
Co319       N327   2.084       .  S
Co319       N359   2.081   1_465  S
Co319       N335   2.081   1_455  S
Co319      Cl363   2.424   1_565  S
N320        C358   1.341       .  A
N320        N327   1.320       .  A
N320       Co321   2.078       .  S
Co321       N324   2.080       .  S
Co321       N341   2.078   1_455  S
Co321       N328   2.078   1_455  S
Co321      Cl363   2.470   1_565  S
C322        N360   1.348       .  A
N323        N330   1.321       .  A
N323        N353   1.324       .  A
N323       Co356   2.090       .  S
N324        N342   1.321       .  A
N324        N360   1.324       .  A
N325        C354   1.348       .  A
N325        N335   1.323       .  A
H326        C351   1.082       .  S
N327        N348   1.323       .  A
N328        N346   1.319       .  A
N328        N333   1.324       .  A
C329        C357   1.457       .  S
C329        N333   1.350       .  A
N330        C345   1.342       .  A
N330       Co352   2.081       .  S
C331        C334   1.456       .  S
C331        H365   1.082       .  S
C331        N359   1.338       .  A
C334        N355   1.350       .  A
N335        N341   1.319       .  A
N336        C362   1.342       .  A
N336        N338   1.320       .  A
N336       Co352   2.082   1_655  S
N337        C351   1.337       .  A
N338        N366   1.323       .  A
N338       Co356   2.086   1_655  S
H339        C362   1.082       .  S
H340        C357   1.082       .  S
N342       Co356   2.095   1_565  S
N343        N355   1.325       .  A
N343        N359   1.319       .  A
N343       Co352   2.082   1_655  S
C344        C358   1.458       .  S
C344        N348   1.348       .  A
C345        C364   1.457       .  S
C345        H349   1.081       .  S
N346        C357   1.339       .  A
N346       Co356   2.081   1_665  S
C350        C362   1.461       .  S
C350        N366   1.348       .  A
Co352      Cl363   2.475       .  S
N353        C364   1.350       .  A
Co356      Cl363   2.427       .  S
C367        C368   1.406       .  A
C367        C372   1.408       .  A
C367        H374   1.083       .  S
C368        C369   1.415       .  A
C369        C370   1.396       .  A
C369        F376   1.353       .  S
C370        C371   1.399       .  A
C370        H375   1.083       .  S
C371        C372   1.412       .  A
C372        F373   1.357       .  S
C377        C378   1.396       .  A
C377        C382   1.395       .  A
C377        H384   1.076       .  S
C378        C379   1.405       .  A
C379        C380   1.407       .  A
C379        F386   1.357       .  S
C380        C381   1.412       .  A
C380        H385   1.083       .  S
C381        C382   1.411       .  A
C382        F383   1.357       .  S
C387        C388   1.406       .  A
C387        C392   1.390       .  A
C387        H394   1.084       .  S
C388        C389   1.411       .  A
C389        C390   1.403       .  A
C389        F396   1.357       .  S
C390        C391   1.401       .  A
C390        H395   1.083       .  S
C391        C392   1.401       .  A
C392        F393   1.358       .  S
C397        C398   1.409       .  A
C397        C402   1.402       .  A
C397        H404   1.083       .  S
C398        C399   1.408       .  A
C399        C400   1.392       .  A
C399        F406   1.358       .  S
C400        C401   1.403       .  A
C400        H405   1.084       .  S
C401        C402   1.403       .  A
C402        F403   1.357       .  S
C407        C408   1.407       .  A
C407        C412   1.408       .  A
C407        H414   1.083       .  S
C408        C409   1.411       .  A
C409        C410   1.394       .  A
C409        F416   1.352       .  S
C410        C411   1.402       .  A
C410        H415   1.083       .  S
C411        C412   1.412       .  A
C412        F413   1.357       .  S
C417        C418   1.405       .  A
C417        C422   1.392       .  A
C417        H424   1.084       .  S
C418        C419   1.409       .  A
C419        C420   1.402       .  A
C419        F426   1.357       .  S
C420        C421   1.404       .  A
C420        H425   1.084       .  S
C421        C422   1.404       .  A
C422        F423   1.358       .  S
C427        C428   1.404       .  A
C427        C432   1.390       .  A
C427        H434   1.083       .  S
C428        C429   1.408       .  A
C429        C430   1.402       .  A
C429        F436   1.357       .  S
C430        C431   1.406       .  A
C430        H435   1.083       .  S
C431        C432   1.407       .  A
C432        F433   1.358       .  S
C437        C438   1.405       .  A
C437        C442   1.389       .  A
C437        H444   1.084       .  S
C438        C439   1.410       .  A
C439        C440   1.404       .  A
C439        F446   1.357       .  S
C440        C441   1.405       .  A
C440        H445   1.084       .  S
C441        C442   1.405       .  A
C442        F443   1.358       .  S
C447        C448   1.402       .  A
C447        C452   1.397       .  A
C447        H454   1.083       .  S
C448        C449   1.405       .  A
C449        C450   1.396       .  A
C449        F456   1.358       .  S
C450        C451   1.402       .  A
C450        H455   1.084       .  S
C451        C452   1.406       .  A
C452        F453   1.357       .  S
C457        C458   1.403       .  A
C457        C462   1.393       .  A
C457        H464   1.084       .  S
C458        C459   1.404       .  A
C459        C460   1.404       .  A
C459        F466   1.357       .  S
C460        C461   1.412       .  A
C460        H465   1.083       .  S
C461        C462   1.409       .  A
C462        F463   1.357       .  S
C467        C468   1.402       .  A
C467        C472   1.400       .  A
C467        H474   1.083       .  S
C468        C469   1.404       .  A
C469        C470   1.394       .  A
C469        F476   1.358       .  S
C470        C471   1.403       .  A
C470        H475   1.081       .  S
C471        C472   1.408       .  A
C472        F473   1.357       .  S
C477        C478   1.398       .  A
C477        C482   1.396       .  A
C477        H484   1.078       .  S
C478        C479   1.404       .  A
C479        C480   1.401       .  A
C479        F486   1.358       .  S
C480        C481   1.406       .  A
C480        H485   1.083       .  S
C481        C482   1.409       .  A
C482        F483   1.358       .  S
C487        C488   1.407       .  A
C487        C492   1.394       .  A
C487        H494   1.084       .  S
C488        C489   1.411       .  A
C489        C490   1.404       .  A
C489        F496   1.357       .  S
C490        C491   1.405       .  A
C490        H495   1.084       .  S
C491        C492   1.404       .  A
C492        F493   1.358       .  S
C497        C498   1.411       .  A
C497        C502   1.391       .  A
C497        H504   1.083       .  S
C498        C499   1.411       .  A
C499        C500   1.413       .  A
C499        F506   1.357       .  S
C500        C501   1.408       .  A
C500        H505   1.083       .  S
C501        C502   1.398       .  A
C502        F503   1.358       .  S
C507        C508   1.406       .  A
C507        C512   1.400       .  A
C507        H514   1.083       .  S
C508        C509   1.406       .  A
C509        C510   1.391       .  A
C509        F516   1.358       .  S
C510        C511   1.403       .  A
C510        H515   1.084       .  S
C511        C512   1.404       .  A
C512        F513   1.357       .  S
C517        C518   1.404       .  A
C517        C522   1.405       .  A
C517        H524   1.083       .  S
C518        C519   1.402       .  A
C519        C520   1.387       .  A
C519        F526   1.359       .  S
C520        C521   1.406       .  A
C520        H525   1.084       .  S
C521        C522   1.410       .  A
C522        F523   1.357       .  S
C527        C528   1.401       .  A
C527        C532   1.403       .  A
C527        H534   1.084       .  S
C528        C529   1.403       .  A
C529        C530   1.392       .  A
C529        F536   1.358       .  S
C530        C531   1.406       .  A
C530        H535   1.084       .  S
C531        C532   1.412       .  A
C532        F533   1.357       .  S
C537        C538   1.401       .  A
C537        C542   1.396       .  A
C537        H544   1.082       .  S
C538        C539   1.406       .  A
C539        C540   1.400       .  A
C539        F546   1.358       .  S
C540        C541   1.403       .  A
C540        H545   1.083       .  S
C541        C542   1.406       .  A
C542        F543   1.358       .  S
C547        C548   1.403       .  A
C547        C552   1.389       .  A
C547        H554   1.084       .  S
C548        C549   1.409       .  A
C549        C550   1.406       .  A
C549        F556   1.357       .  S
C550        C551   1.407       .  A
C550        H555   1.083       .  S
C551        C552   1.407       .  A
C552        F553   1.356       .  S
C557        C558   1.401       .  A
C557        C562   1.388       .  A
C557        H564   1.084       .  S
C558        C559   1.409       .  A
C559        C560   1.403       .  A
C559        F566   1.357       .  S
C560        C561   1.406       .  A
C560        H565   1.084       .  S
C561        C562   1.407       .  A
C562        F563   1.355       .  S
C567        C568   1.405       .  A
C567        C572   1.396       .  A
C567        H574   1.084       .  S
C568        C569   1.409       .  A
C569        C570   1.401       .  A
C569        F576   1.357       .  S
C570        C571   1.401       .  A
C570        H575   1.083       .  S
C571        C572   1.402       .  A
C572        F573   1.357       .  S
C577        C578   1.405       .  A
C577        C582   1.392       .  A
C577        H584   1.084       .  S
C578        C579   1.410       .  A
C579        C580   1.400       .  A
C579        F586   1.357       .  S
C580        C581   1.400       .  A
C580        H585   1.084       .  S
C581        C582   1.401       .  A
C582        F583   1.358       .  S
C587        C588   1.399       .  A
C587        C592   1.400       .  A
C587        H594   1.084       .  S
C588        C589   1.397       .  A
C589        C590   1.397       .  A
C589        F596   1.350       .  S
C590        C591   1.415       .  A
C590        H595   1.079       .  S
C591        C592   1.418       .  A
C592        F593   1.356       .  S
C597        C598   1.406       .  A
C597        C602   1.401       .  A
C597        H604   1.083       .  S
C598        C599   1.410       .  A
C599        C600   1.396       .  A
C599        F606   1.358       .  S
C600        C601   1.398       .  A
C600        H605   1.077       .  S
C601        C602   1.405       .  A
C602        F603   1.358       .  S
C607        C608   1.404       .  A
C607        C612   1.404       .  A
C607        H614   1.084       .  S
C608        C609   1.403       .  A
C609        C610   1.390       .  A
C609        F616   1.358       .  S
C610        C611   1.406       .  A
C610        H615   1.084       .  S
C611        C612   1.411       .  A
C612        F613   1.357       .  S
C617        C618   1.401       .  A
C617        C622   1.396       .  A
C617        H624   1.083       .  S
C618        C619   1.403       .  A
C619        C620   1.400       .  A
C619        F626   1.357       .  S
C620        C621   1.406       .  A
C620        H625   1.083       .  S
C621        C622   1.407       .  A
C622        F623   1.357       .  S
C627        C628   1.404       .  A
C627        C632   1.386       .  A
C627        H634   1.084       .  S
C628        C629   1.409       .  A
C629        C630   1.407       .  A
C629        F636   1.357       .  S
C630        C631   1.407       .  A
C630        H635   1.084       .  S
C631        C632   1.405       .  A
C632        F633   1.356       .  S
C637        C638   1.405       .  A
C637        C642   1.400       .  A
C637        H644   1.083       .  S
C638        C639   1.405       .  A
C639        C640   1.395       .  A
C639        F646   1.356       .  S
C640        C641   1.402       .  A
C640        H645   1.083       .  S
C641        C642   1.404       .  A
C642        F643   1.357       .  S
C647        C648   1.407       .  A
C647        C652   1.406       .  A
C647        H654   1.083       .  S
C648        C649   1.410       .  A
C649        C650   1.392       .  A
C649        F656   1.358       .  S
C650        C651   1.403       .  A
C650        H655   1.083       .  S
C651        C652   1.410       .  A
C652        F653   1.357       .  S
C657        C658   1.402       .  A
C657        C662   1.389       .  A
C657        H664   1.084       .  S
C658        C659   1.409       .  A
C659        C660   1.404       .  A
C659        F666   1.357       .  S
C660        C661   1.406       .  A
C660        H665   1.084       .  S
C661        C662   1.408       .  A
C662        F663   1.358       .  S
C667        C668   1.403       .  A
C667        C672   1.398       .  A
C667        H674   1.083       .  S
C668        C669   1.406       .  A
C669        C670   1.399       .  A
C669        F676   1.357       .  S
C670        C671   1.403       .  A
C670        H675   1.083       .  S
C671        C672   1.404       .  A
C672        F673   1.358       .  S
C677        C678   1.401       .  A
C677        C682   1.385       .  A
C677        H684   1.084       .  S
C678        C679   1.409       .  A
C679        C680   1.407       .  A
C679        F686   1.357       .  S
C680        C681   1.407       .  A
C680        H685   1.083       .  S
C681        C682   1.406       .  A
C682        F683   1.355       .  S
