geometry optimzed in LAMMPS
_audit_creation_date              2020-11-30 
_audit_creation_method            'lammps2cif' 
_symmetry_space_group_name_H-M    'P1' 
_symmetry_Int_Tables_number       1 
_symmetry_cell_setting            triclinic 
loop_ 
_symmetry_equiv_pos_as_xyz 
  x,y,z 
_cell_length_a                    47.13313008618175 
_cell_length_b                    47.17724161796705 
_cell_length_c                    29.215943144599173 
_cell_angle_alpha                 89.91097641299675 
_cell_angle_beta                  90.03846847791337 
_cell_angle_gamma                 120.1612294579386 
loop_ 
_atom_site_label 
_atom_site_type_symbol 
_atom_site_fract_x 
_atom_site_fract_y 
_atom_site_fract_z 
_atom_site_charge 
Zn1        Zn  0.37738946  0.07434396  0.15702804     1.49720
Zn2        Zn  0.44282701  0.13944289  0.16980876     1.49360
Zn3        Zn  0.43175898  0.07304153  0.22052247     1.49110
Zn4        Zn  0.44417953  0.07799298  0.11885243     1.49480
O5          O  0.42405028  0.09154273  0.16666971    -1.82870
O6          O  0.36240611  0.10803984  0.15550909    -0.73500
O7          O  0.47217134  0.15798579  0.22718258    -0.73320
O8          O  0.39150242  0.05234591  0.25904975    -0.72840
O9          O  0.40791311  0.15353212  0.17376670    -0.73520
O10         O  0.35242570  0.04673876  0.21067722    -0.73120
O11         O  0.46184928  0.11012207  0.25665667    -0.73700
O12         O  0.46945660  0.05556824  0.14009840    -0.73090
O13         O  0.46407805  0.15568865  0.10745388    -0.73850
O14         O  0.45240323  0.04318479  0.21172396    -0.73240
O15         O  0.47342574  0.11671026  0.08088872    -0.73710
O16         O  0.41007422  0.04937629  0.07241384    -0.73610
O17         O  0.36627236  0.05182536  0.09592283    -0.73400
C18         C  0.37716570  0.13839291  0.16532953     0.78390
C19         C  0.47552961  0.14106980  0.25872723     0.78880
C20         C  0.36170904  0.04292763  0.25001221     0.77840
C21         C  0.46852124  0.04145064  0.17770762     0.78210
C22         C  0.47372033  0.14362968  0.07598012     0.79350
C23         C  0.38129335  0.04458155  0.06586483     0.78400
C24         C  0.01528284  0.13941492  0.36584666     0.04380
C25         C  0.01028925  0.13977961  0.31890241    -0.11770
C26         C  0.49382085  0.15516153  0.30112419     0.01880
C27         C  0.48691282  0.17471144  0.33019487    -0.10290
C28         C  0.49290213  0.17483230  0.37751518     0.04370
C29         C  0.00452497  0.15515118  0.39514528    -0.09710
H30         H  0.01788910  0.12673461  0.29605856     0.09970
H31         H  0.47538675  0.18791722  0.31694237     0.07500
H32         H  0.00906917  0.15533075  0.43160616     0.07350
C33         C  0.30484998  0.46511102  0.30400662     0.04380
C34         C  0.32208797  0.98855211  0.27127248    -0.11770
C35         C  0.33703940  0.02149248  0.28268379     0.01880
C36         C  0.33218364  0.03126024  0.32657524    -0.10290
C37         C  0.31186051  0.00667681  0.35821349     0.04370
C38         C  0.29929336  0.47384854  0.34668244    -0.09710
H39         H  0.32771013  0.48110811  0.23895702     0.09970
H40         H  0.34330891  0.05695858  0.33531772     0.07500
H41         H  0.28594739  0.45471567  0.37188278     0.07350
C42         C  0.45779827  0.17486725  0.96655703     0.04380
C43         C  0.46005757  0.17012172  0.01359092    -0.11770
C44         C  0.47948606  0.15741834  0.02947829     0.01880
C45         C  0.49919339  0.15248113  0.99818086    -0.10290
C46         C  0.99692862  0.15736948  0.95120581     0.04370
C47         C  0.97360914  0.16492166  0.93547366    -0.09710
H48         H  0.44707847  0.17673112  0.03797494     0.09970
H49         H  0.51591165  0.14462056  0.01015237     0.07110
H50         H  0.97187968  0.16836918  0.89908315     0.07350
C51         C  0.33939966  0.04812605  0.95921597     0.04380
C52         C  0.35140372  0.05274668  0.00371551    -0.11770
C53         C  0.36716015  0.03617799  0.01957050     0.01880
C54         C  0.36992599  0.01396875  0.99016767    -0.10290
C55         C  0.35880707  0.51081532  0.94452259     0.04370
C56         C  0.34729300  0.53093322  0.92824978    -0.09710
H57         H  0.34590904  0.06715113  0.02713927     0.09970
H58         H  0.37993674  0.99918049  0.00261115     0.07500
H59         H  0.33707438  0.52705730  0.89396122     0.07350
Zn60       Zn  0.23523751  0.27336975  0.54519973     1.49720
Zn61       Zn  0.23004512  0.25683786  0.44610938     1.49360
Zn62       Zn  0.29891668  0.27138828  0.49733410     1.49110
Zn63       Zn  0.23583334  0.20641067  0.51372489     1.49480
O64         O  0.25081572  0.25237367  0.50056322    -1.82870
O65         O  0.21865947  0.30352979  0.52023017    -0.73500
O66         O  0.26642912  0.28100301  0.40503340    -0.73320
O67         O  0.31449065  0.29892749  0.55607623    -0.72840
O68         O  0.20357469  0.28213686  0.45123195    -0.73520
O69         O  0.27101364  0.29817169  0.58867381    -0.73120
O70         O  0.31542288  0.29481331  0.43434809    -0.73700
O71         O  0.27092795  0.19275850  0.52580258    -0.73090
O72         O  0.20520289  0.21389804  0.41441337    -0.73850
O73         O  0.31558496  0.23752032  0.50305455    -0.73240
O74         O  0.21128946  0.17918329  0.45945404    -0.73710
O75         O  0.20376010  0.19481396  0.56494306    -0.73610
O76         O  0.19900677  0.23818025  0.58366662    -0.73400
C77         C  0.20409885  0.30140862  0.48253898     0.78390
C78         C  0.29733999  0.29444871  0.40132367     0.78880
C79         C  0.30067891  0.30496653  0.58966270     0.77840
C80         C  0.30152475  0.20756700  0.51619700     0.78210
C81         C  0.20111369  0.18562747  0.42279853     0.79350
C82         C  0.19042039  0.20806355  0.58801441     0.78400
Zn83       Zn  0.36829097  0.46683704  0.82212977     1.49720
Zn84       Zn  0.31765439  0.41071752  0.89343478     1.49360
Zn85       Zn  0.30159929  0.40159292  0.78618557     1.49110
Zn86       Zn  0.36836069  0.40415023  0.82353212     1.49480
O87         O  0.33809686  0.42040682  0.83219521    -1.82870
O88         O  0.36436377  0.49179485  0.87326774    -0.73500
O89         O  0.26486749  0.38436258  0.88966125    -0.73320
O90         O  0.30955209  0.43560686  0.73759823    -0.72840
O91         O  0.33623092  0.45439273  0.92723857    -0.73520
O92         O  0.35780951  0.47719658  0.76037081    -0.73120
O93         O  0.25496736  0.38043918  0.81476061    -0.73700
O94         O  0.35176771  0.37325936  0.77130154    -0.73090
O95         O  0.33450250  0.38499680  0.92928369    -0.73850
O96         O  0.30377153  0.36672381  0.74834185    -0.73240
O97         O  0.36710318  0.37984818  0.87874586    -0.73710
O98         O  0.41773952  0.43683933  0.81596585    -0.73610
O99         O  0.41770570  0.48314630  0.82200776    -0.73400
C100        C  0.35375374  0.48414080  0.91406004     0.78390
C101        C  0.24439620  0.37462772  0.85600002     0.78880
C102        C  0.33530597  0.46321225  0.73031429     0.77840
C103        C  0.32655202  0.35979349  0.74550009     0.78210
C104        C  0.35409073  0.37488685  0.91808205     0.79350
C105        C  0.43353108  0.46796228  0.81880378     0.78400
C106        C  0.34851396  0.30286898  0.68938159     0.04380
C107        C  0.33629794  0.30009287  0.64543473    -0.11770
C108        C  0.31735978  0.31417764  0.63414214     0.01880
C109        C  0.31114628  0.33193348  0.66782417    -0.10290
C110        C  0.32489627  0.33575130  0.71198047     0.04370
C111        C  0.34218562  0.31973296  0.72274372    -0.09710
H112        H  0.34210637  0.28714086  0.61986741     0.09970
H113        H  0.29700957  0.34354271  0.65928041     0.07500
H114        H  0.35371518  0.32307771  0.75600440     0.07350
C115        C  0.34217440  0.47756659  0.68394441     0.04380
C116        C  0.31756461  0.47377021  0.65296206    -0.11770
C117        C  0.32648711  0.48712879  0.60838203     0.01880
C118        C  0.35887164  0.00042184  0.59396231    -0.10290
C119        C  0.38343055  0.00741349  0.62575121     0.04370
C120        C  0.37510836  0.49516123  0.67010177    -0.09710
H121        H  0.29226404  0.46220093  0.66415032     0.09970
H122        H  0.36589187  0.01047557  0.55972033     0.07500
H123        H  0.39458004  0.00081641  0.69449979     0.07350
C124        C  0.35871319  0.35292021  0.94819729     0.04380
C125        C  0.37321576  0.36180083  0.99195537    -0.11770
C126        C  0.37344780  0.33752825  0.01987711     0.01880
C127        C  0.35921051  0.30529908  0.00389059    -0.10290
C128        C  0.34229230  0.29650880  0.96262088     0.04370
C129        C  0.34511852  0.32071447  0.93289934    -0.09710
H130        H  0.38330310  0.38665711  0.00428760     0.09970
H131        H  0.35684445  0.28600137  0.02659629     0.07500
H132        H  0.33125044  0.31350024  0.90114243     0.07350
Zn133      Zn  0.02689992  0.26845489  0.43983890     1.49720
Zn134      Zn  0.04227507  0.27310875  0.54521253     1.49360
Zn135      Zn  0.47635562  0.27295117  0.51145621     1.49110
Zn136      Zn  0.47608073  0.20883509  0.50602402     1.49480
O137        O  0.50549894  0.25585478  0.50005404    -1.82870
O138        O  0.07849927  0.29352258  0.44278536    -0.73500
O139        O  0.03646453  0.29820560  0.59564207    -0.73320
O140        O  0.48205152  0.30396964  0.46044425    -0.72840
O141        O  0.08770250  0.29856985  0.51765860    -0.73520
O142        O  0.01082991  0.29487770  0.40756682    -0.73120
O143        O  0.48803560  0.29192735  0.57508039    -0.73700
O144        O  0.42642759  0.19252436  0.51578221    -0.73090
O145        O  0.04178689  0.23663346  0.58021089    -0.73850
O146        O  0.42646865  0.23918052  0.51278355    -0.73240
O147        O  0.49455090  0.19397565  0.55693149    -0.73710
O148        O  0.47866853  0.18805992  0.44783655    -0.73610
O149        O  0.01167838  0.22877246  0.40100007    -0.73400
C150        C  0.09838518  0.30353750  0.47675412     0.78390
C151        C  0.01073108  0.29931856  0.60469773     0.78880
C152        C  0.49409099  0.30781466  0.42022491     0.77840
C153        C  0.41060721  0.20797211  0.51555422     0.78210
C154        C  0.02028352  0.20648134  0.58208352     0.79350
C155        C  0.49301290  0.19849330  0.40943944     0.78400
Zn156      Zn  0.44317326  0.31004886  0.17894469     1.49720
Zn157      Zn  0.44769087  0.37265707  0.12403021     1.49360
Zn158      Zn  0.37860477  0.30997038  0.15927625     1.49110
Zn159      Zn  0.43063796  0.36642056  0.22361623     1.49480
O160        O  0.42489013  0.33926625  0.17165266    -1.82870
O161        O  0.46495215  0.31376107  0.11687140    -0.73500
O162        O  0.41614352  0.36618260  0.07325894    -0.73320
O163        O  0.36346808  0.26115702  0.15757112    -0.72840
O164        O  0.48012727  0.36432152  0.09303619    -0.73520
O165        O  0.40751602  0.26072799  0.18243738    -0.73120
O166        O  0.36995716  0.32198931  0.09698132    -0.73700
O167        O  0.38970972  0.34622575  0.26048048    -0.73090
O168        O  0.47122977  0.42049786  0.14403454    -0.73850
O169        O  0.35190870  0.31224872  0.21102905    -0.73240
O170        O  0.45006551  0.41662959  0.21279113    -0.73710
O171        O  0.46076017  0.36165091  0.26262807    -0.73610
O172        O  0.47137670  0.32304573  0.23871389    -0.73400
C173        C  0.47704808  0.33631820  0.08639685     0.78390
C174        C  0.38679354  0.34332717  0.06643559     0.78880
C175        C  0.37737451  0.24528940  0.17017001     0.77840
C176        C  0.36021625  0.32544424  0.25044861     0.78210
C177        C  0.46805124  0.43413016  0.17964738     0.79350
C178        C  0.47441832  0.34462192  0.26804940     0.78400
C179        C  0.30177873  0.34492023  0.30203386     0.04380
C180        C  0.29639338  0.33109497  0.34513848    -0.11770
C181        C  0.31021731  0.31223911  0.35811782     0.01880
C182        C  0.33076282  0.30809911  0.32694267    -0.10290
C183        C  0.33482323  0.32150143  0.28224233     0.04370
C184        C  0.31899996  0.33843569  0.26967814    -0.09710
H185        H  0.28286163  0.33685753  0.36991324     0.09970
H186        H  0.34275361  0.29455304  0.33671018     0.07500
H187        H  0.32447374  0.35112589  0.23698969     0.07350
C188        C  0.49164523  0.33058613  0.38889071     0.04380
C189        C  0.48660056  0.32459110  0.34141870    -0.11770
C190        C  0.49167001  0.35032668  0.31204564     0.01880
C191        C  0.50588323  0.38220057  0.32990339    -0.10290
C192        C  0.01010988  0.38778850  0.37706949     0.04370
C193        C  0.99974406  0.36115558  0.40646835    -0.09710
H194        H  0.47740929  0.30008563  0.32813028     0.09970
H195        H  0.01299761  0.40261754  0.30668509     0.07500
H196        H  0.00278470  0.36529338  0.44309102     0.07350
Zn197      Zn  0.23624468  0.03530775  0.51431283     1.49720
Zn198      Zn  0.23166391  0.48013704  0.44678008     1.49360
Zn199      Zn  0.29964633  0.03317357  0.49812458     1.49110
Zn200      Zn  0.23547423  0.46869038  0.54925594     1.49480
O201        O  0.25142234  0.00457961  0.50248624    -1.82870
O202        O  0.20999664  0.03648597  0.46125904    -0.73500
O203        O  0.26760079  0.49292837  0.40481765    -0.73320
O204        O  0.31699426  0.08348869  0.50961435    -0.72840
O205        O  0.20565172  0.49692236  0.41533028    -0.73520
O206        O  0.27115147  0.08383314  0.52362515    -0.73120
O207        O  0.31596749  0.02981563  0.43345476    -0.73700
O208        O  0.27336074  0.47386490  0.58479692    -0.73090
O209        O  0.20693999  0.42891734  0.45093853    -0.73850
O210        O  0.31612129  0.01375474  0.54691646    -0.73240
O211        O  0.21443417  0.42168286  0.52373527    -0.73710
O212        O  0.20337376  0.47095006  0.59326317    -0.73610
O213        O  0.20663275  0.01710572  0.56793397    -0.73400
C214        C  0.20027652  0.02014573  0.42436581     0.78390
C215        C  0.29832962  0.01149110  0.40074974     0.78880
C216        C  0.30221948  0.09943981  0.51845805     0.77840
C217        C  0.30401899  0.49165546  0.57831626     0.78210
C218        C  0.20391174  0.40986248  0.48409420     0.79350
C219        C  0.19480579  0.49256724  0.59512795     0.78400
Zn220      Zn  0.03941072  0.14110719  0.82988361     1.49720
Zn221      Zn  0.10435568  0.14326999  0.83471583     1.49360
Zn222      Zn  0.10397454  0.20827747  0.79371583     1.49110
Zn223      Zn  0.09531196  0.19473526  0.89900847     1.49480
O224        O  0.08592743  0.17207630  0.84012339    -1.82870
O225        O  0.02491896  0.09160565  0.82835428    -0.73500
O226        O  0.12721642  0.15483036  0.77383280    -0.73320
O227        O  0.06884485  0.20213494  0.74802821    -0.72840
O228        O  0.07211772  0.09287818  0.83205262    -0.73520
O229        O  0.03001116  0.15154816  0.76719768    -0.73120
O230        O  0.13370635  0.20280622  0.75058894    -0.73700
O231        O  0.12322280  0.24691603  0.89434045    -0.73090
O232        O  0.13261320  0.15057223  0.88976301    -0.73850
O233        O  0.12914533  0.25539940  0.81938991    -0.73240
O234        O  0.11951219  0.17887708  0.93823561    -0.73710
O235        O  0.05211192  0.17900121  0.93045272    -0.73610
O236        O  0.01352541  0.14632849  0.88037869    -0.73400
C237        C  0.04091725  0.07638044  0.82914059     0.78390
C238        C  0.13597252  0.17744732  0.74378966     0.78880
C239        C  0.04299964  0.17514491  0.73849239     0.77840
C240        C  0.13478182  0.26667173  0.86012910     0.78210
C241        C  0.13400157  0.16294391  0.92912413     0.79350
C242        C  0.02214608  0.16048698  0.91921929     0.78400
C243        C  0.12947668  0.12956347  0.63872806     0.04380
C244        C  0.14476746  0.15397034  0.60599121    -0.11770
C245        C  0.16389496  0.18664036  0.61946943     0.01880
C246        C  0.16168734  0.19562539  0.66484178    -0.10290
C247        C  0.14295761  0.17084845  0.69716849     0.04370
C248        C  0.12755712  0.13795232  0.68368424    -0.09710
H249        H  0.14679493  0.14686209  0.57136337     0.09970
H250        H  0.17563252  0.22103036  0.67539011     0.07500
H251        H  0.11528362  0.11851747  0.70870582     0.07350
C252        C  0.03014594  0.16855600  0.69109926     0.04380
C253        C  0.01292528  0.13568461  0.67681821    -0.11770
C254        C  0.50299050  0.12769406  0.63151462     0.01880
C255        C  0.51168482  0.15238357  0.59942883    -0.10290
C256        C  0.02464080  0.18469190  0.61359895     0.04370
C257        C  0.03571981  0.19341281  0.65919783    -0.09710
H258        H  0.50583471  0.11596621  0.70131985     0.09970
H259        H  0.50305118  0.14563230  0.56448025     0.07500
H260        H  0.04678583  0.21866474  0.67019290     0.07350
Zn261      Zn  0.20145269  0.10180010  0.12387675     1.49720
Zn262      Zn  0.20411614  0.10319380  0.22279897     1.49360
Zn263      Zn  0.14196153  0.10658403  0.17240453     1.49110
Zn264      Zn  0.14067797  0.03910129  0.17393991     1.49480
O265        O  0.17113246  0.08734782  0.17348262    -1.82870
O266        O  0.25203799  0.12861724  0.13330178    -0.73500
O267        O  0.19414867  0.13012844  0.26398011    -0.73320
O268        O  0.14981906  0.13402052  0.11281771    -0.72840
O269        O  0.25398751  0.12898278  0.20844909    -0.73520
O270        O  0.18891293  0.12602264  0.08407300    -0.73120
O271        O  0.14995121  0.12949879  0.23437358    -0.73700
O272        O  0.09139491  0.02516186  0.17272301    -0.73090
O273        O  0.19448953  0.06558679  0.26334137    -0.73850
O274        O  0.09222479  0.07236476  0.17315796    -0.73240
O275        O  0.14687074  0.02459159  0.23702195    -0.73710
O276        O  0.14915513  0.01774895  0.11732380    -0.73610
O277        O  0.19090126  0.06349728  0.08886580    -0.73400
C278        C  0.26878919  0.13704191  0.17008814     0.78390
C279        C  0.17030485  0.13538768  0.26712011     0.78880
C280        C  0.16973026  0.13740423  0.08068635     0.77840
C281        C  0.07606058  0.04107123  0.17346079     0.78210
C282        C  0.16850579  0.03795086  0.26851482     0.79350
C283        C  0.17092245  0.03297843  0.08654465     0.78400
C284        C  0.12343760  0.12371314  0.37544891     0.04380
C285        C  0.14909427  0.13720787  0.40693775    -0.11770
C286        C  0.18060139  0.15911316  0.39161791     0.01880
C287        C  0.18809544  0.16087222  0.34480107    -0.10290
C288        C  0.16300009  0.14230549  0.31322167     0.04370
C289        C  0.13049470  0.12495224  0.32862756    -0.09710
H290        H  0.14344788  0.13674544  0.44303800     0.09970
H291        H  0.21302837  0.17674992  0.33308683     0.07500
H292        H  0.11066741  0.11324640  0.30407207     0.07350
C293        C  0.17955559  0.02583398  0.39313921     0.04380
C294        C  0.14909607  0.51908796  0.40951573    -0.11770
C295        C  0.12269706  0.50765186  0.37922891     0.01880
C296        C  0.12893835  0.01175527  0.33193057    -0.10290
C297        C  0.16100493  0.02463226  0.31527084     0.04370
C298        C  0.18611049  0.02993427  0.34601411    -0.09710
H299        H  0.14445389  0.51615406  0.44606266     0.09970
H300        H  0.10886366  0.50435674  0.30801163     0.07500
H301        H  0.21044458  0.03712127  0.33346831     0.07350
C302        C  0.15724860  0.16344695  0.96240068     0.04380
C303        C  0.14874553  0.15062103  0.00745427    -0.11770
C304        C  0.17406068  0.15605710  0.03834754     0.01880
C305        C  0.20665936  0.17545991  0.02445861    -0.10290
C306        C  0.21447245  0.18763266  0.98030521     0.04370
C307        C  0.19000407  0.18097624  0.94893871    -0.09710
H308        H  0.12324975  0.13585696  0.01742896     0.09970
H309        H  0.22646572  0.18140221  0.04849613     0.07500
H310        H  0.19659260  0.19229603  0.91532500     0.07350
Zn311      Zn  0.03948744  0.40152671  0.83496127     1.49720
Zn312      Zn  0.10411406  0.46519736  0.84042691     1.49360
Zn313      Zn  0.09506595  0.40346620  0.90331171     1.49110
Zn314      Zn  0.10569417  0.40188561  0.79820660     1.49480
O315        O  0.08619313  0.41799080  0.84456694    -1.82870
O316        O  0.02506131  0.43612701  0.82376765    -0.73500
O317        O  0.12973453  0.48496529  0.89738752    -0.73320
O318        O  0.05282585  0.37699204  0.93698084    -0.72840
O319        O  0.07136649  0.48209010  0.83632287    -0.73520
O320        O  0.01487611  0.37672148  0.89105806    -0.73120
O321        O  0.11961969  0.44282691  0.94307190    -0.73700
O322        O  0.13397792  0.38373865  0.82362436    -0.73090
O323        O  0.13009902  0.47990349  0.78170454    -0.73850
O324        O  0.12154978  0.37820334  0.89752091    -0.73240
O325        O  0.13131090  0.43687082  0.75236173    -0.73710
O326        O  0.06962045  0.36588700  0.76112386    -0.73610
O327        O  0.02615818  0.36928782  0.78348154    -0.73400
C328        C  0.04067310  0.46731065  0.82818745     0.78390
C329        C  0.13221760  0.47337771  0.93569402     0.78880
C330        C  0.02328551  0.36915537  0.92849240     0.77840
C331        C  0.13619201  0.37394771  0.86344496     0.78210
C332        C  0.13722889  0.46621263  0.74950367     0.79350
C333        C  0.03923634  0.35659820  0.75870020     0.78400
C334        C  0.46135981  0.29107772  0.70825349     0.04380
C335        C  0.47128721  0.28511463  0.66652462    -0.11770
C336        C  0.00391552  0.30389263  0.65240911     0.01880
C337        C  0.02772140  0.32587029  0.68355393    -0.10290
C338        C  0.01767398  0.32989548  0.72754820     0.04370
C339        C  0.48460090  0.31121701  0.74000790    -0.09710
H340        H  0.45248294  0.26930277  0.64231265     0.09970
H341        H  0.05300113  0.34102111  0.67278568     0.07500
H342        H  0.47610905  0.31607476  0.77193636     0.07350
C343        C  0.13729516  0.01436711  0.64831798     0.04380
C344        C  0.15289259  0.00585624  0.61558035    -0.11770
C345        C  0.17001441  0.49004908  0.62807886     0.01880
C346        C  0.16585985  0.47678798  0.67254434    -0.10290
C347        C  0.14729809  0.48293265  0.70500127     0.04370
C348        C  0.13430337  0.00287686  0.69284598    -0.09710
H349        H  0.15508968  0.01542294  0.58115113     0.09970
H350        H  0.17761208  0.46297196  0.68216727     0.07500
H351        H  0.12179196  0.00958414  0.71794308     0.07350
C352        C  0.45800503  0.29112852  0.97456633     0.04380
C353        C  0.46128771  0.29679687  0.02204244    -0.11770
C354        C  0.48176289  0.32855033  0.03911390     0.01880
C355        C  0.50166070  0.35369763  0.00824367    -0.10290
C356        C  0.99786993  0.34782864  0.96094858     0.04370
C357        C  0.97311549  0.31779474  0.94468578    -0.09710
H358        H  0.44840028  0.27654179  0.04562776     0.09970
H359        H  0.51960217  0.37775215  0.02080651     0.07500
H360        H  0.97035924  0.31353178  0.90804694     0.07350
C361        C  0.21318764  0.02891057  0.98348323     0.04380
C362        C  0.18764698  0.51288128  0.95299865    -0.11770
C363        C  0.15557864  0.49597175  0.96872686     0.01880
C364        C  0.14842000  0.99831573  0.01510056    -0.10290
C365        C  0.17461820  0.01750632  0.04518883     0.04370
C366        C  0.20693387  0.03074594  0.02940526    -0.09710
H367        H  0.19312758  0.51037100  0.91762936     0.09970
H368        H  0.12321596  0.98707284  0.02663706     0.07500
H369        H  0.22743903  0.04381665  0.05268388     0.07350
C370        C  0.48668896  0.02304078  0.18120713     0.04380
C371        C  0.46953313  0.48849903  0.18485964    -0.11770
C372        C  0.48630254  0.47078566  0.18204693     0.01880
C373        C  0.02085299  0.48821360  0.17753131    -0.10290
C374        C  0.03895817  0.02288312  0.17580026     0.04370
C375        C  0.02129305  0.03988687  0.17677558    -0.09710
H376        H  0.44298586  0.47532122  0.18715621     0.09970
H377        H  0.03362937  0.47455069  0.17550319     0.07500
H378        H  0.03442122  0.06636837  0.17408415     0.07350
C379        C  0.32059087  0.18933442  0.51906282     0.04380
C380        C  0.35542180  0.20631297  0.51746838    -0.11770
C381        C  0.37339292  0.18946218  0.51796015     0.01880
C382        C  0.35560965  0.15469279  0.51932671    -0.10290
C383        C  0.32088526  0.13669402  0.52071706     0.04370
C384        C  0.30388383  0.15452004  0.52123221    -0.09710
H385        H  0.36861344  0.23281931  0.51563977     0.09970
H386        H  0.36888031  0.14149601  0.51872820     0.07500
H387        H  0.27730094  0.14111898  0.52161945     0.07350
C388        C  0.18666393  0.32073816  0.47627387     0.04380
C389        C  0.15213259  0.30411020  0.47109452    -0.11770
C390        C  0.13472058  0.32134354  0.47005717     0.01880
C391        C  0.15235796  0.35583792  0.47214670    -0.10290
C392        C  0.18671998  0.37334756  0.47732156     0.04370
C393        C  0.20359489  0.35548686  0.48040343    -0.09710
H394        H  0.13855489  0.27755417  0.47090308     0.09970
H395        H  0.13904914  0.36903021  0.47261530     0.07500
H396        H  0.22986884  0.36861845  0.48609543     0.07350
C397        C  0.02281942  0.48647604  0.82488264     0.04380
C398        C  0.48823949  0.46970702  0.82081869    -0.11770
C399        C  0.47054240  0.48659328  0.81993555     0.01880
C400        C  0.48824883  0.02125138  0.82254576    -0.10290
C401        C  0.02289919  0.03919243  0.82631943     0.04370
C402        C  0.03981911  0.02132258  0.82748644    -0.09710
H403        H  0.47489007  0.44318714  0.81939117     0.09970
H404        H  0.47488745  0.03435939  0.82203235     0.07500
H405        H  0.06629929  0.03457204  0.83070274     0.07350
C406        C  0.15502155  0.35610528  0.86875995     0.04380
C407        C  0.18979588  0.37305652  0.86567492    -0.11770
C408        C  0.20751630  0.35607132  0.86399984     0.01880
C409        C  0.18927784  0.32114817  0.86389948    -0.10290
C410        C  0.15438291  0.30345436  0.86682855     0.04370
C411        C  0.13784497  0.32143205  0.86975143    -0.09710
H412        H  0.20304140  0.39954673  0.86312658     0.09970
H413        H  0.20218719  0.30772601  0.86003453     0.07500
H414        H  0.11124198  0.30830686  0.87001319     0.07350
C415        C  0.35828964  0.15626275  0.16700226     0.04380
C416        C  0.37517734  0.19079029  0.16906548    -0.11770
C417        C  0.35831460  0.20840111  0.16981482     0.01880
C418        C  0.32344698  0.19058910  0.16939291    -0.10290
C419        C  0.30571986  0.15588429  0.16839379     0.04370
C420        C  0.32348316  0.13909348  0.16669555    -0.09710
H421        H  0.40177013  0.20415746  0.16906183     0.09970
H422        H  0.31005576  0.20366640  0.17037879     0.07500
H423        H  0.31009011  0.11255350  0.16571595     0.07350
C424        C  0.10218959  0.04016731  0.64683941     0.24850
C425        C  0.13231804  0.04184720  0.63858625    -0.23260
C426        C  0.15975429  0.07146119  0.62496910     0.19760
C427        C  0.15753175  0.09933769  0.62095555     0.24790
C428        C  0.12786114  0.09827904  0.63093235    -0.23200
C429        C  0.09995233  0.06848597  0.64302169     0.19690
F430        F  0.07136090  0.06736901  0.65356170    -0.13160
F431        F  0.07561119  0.01161004  0.66031119    -0.15520
F432        F  0.18552089  0.12814443  0.61233090    -0.15530
F433        F  0.18967493  0.07415784  0.61962709    -0.13160
C434        C  0.06135593  0.47908155  0.37535904     0.24850
C435        C  0.08998873  0.48229382  0.39526072    -0.23260
C436        C  0.08790462  0.45609013  0.42123141     0.19760
C437        C  0.05960811  0.42587037  0.42049810     0.24790
C438        C  0.03267213  0.42110964  0.39395687    -0.23200
C439        C  0.03264781  0.44847921  0.37478711     0.19690
F440        F  0.00610625  0.44483683  0.35141811    -0.13160
F441        F  0.06221908  0.50452228  0.35234378    -0.15520
F442        F  0.06116439  0.40030987  0.43926048    -0.15530
F443        F  0.11472951  0.45748174  0.44082837    -0.13160
C444        C  0.30207721  0.23834815  0.94197049     0.24850
C445        C  0.31000417  0.26759967  0.96447605    -0.23260
C446        C  0.28621670  0.27059021  0.98946358     0.19760
C447        C  0.25496561  0.24436004  0.99315165     0.24790
C448        C  0.24705246  0.21476087  0.97210819    -0.23200
C449        C  0.27024314  0.21160379  0.94588112     0.19690
F450        F  0.26216610  0.18279369  0.92513262    -0.13160
F451        F  0.32495501  0.23578240  0.91701809    -0.15520
F452        F  0.23231509  0.24758498  0.01787147    -0.15530
F453        F  0.29350229  0.29913880  0.01054698    -0.13160
C454        C  0.44550373  0.09498785  0.60880875     0.24850
C455        C  0.47458175  0.09569586  0.62147789    -0.23260
C456        C  0.47435746  0.06639516  0.63079081     0.19760
C457        C  0.44479647  0.03658084  0.62890023     0.24790
C458        C  0.41562230  0.03628721  0.61789563    -0.23200
C459        C  0.41641824  0.06570339  0.60706427     0.19690
F460        F  0.38845042  0.06671101  0.59964313    -0.13160
F461        F  0.44449343  0.12304869  0.60270309    -0.15520
F462        F  0.44426331  0.00837074  0.64002812    -0.15530
F463        F  0.50228493  0.06692488  0.64371762    -0.13160
C464        C  0.37407650  0.27182591  0.72079410     0.24850
C465        C  0.37627613  0.29826254  0.69578454    -0.23260
C466        C  0.40610202  0.32229806  0.67735539     0.19760
C467        C  0.43364580  0.31972546  0.68286422     0.24790
C468        C  0.43163111  0.29287799  0.70656384    -0.23200
C469        C  0.40201319  0.26898422  0.72598427     0.19690
F470        F  0.40027246  0.24325067  0.74926943    -0.13160
F471        F  0.34512424  0.24901738  0.73947440    -0.15520
F472        F  0.46246032  0.34327719  0.66450326    -0.15530
F473        F  0.40844842  0.34841388  0.65418339    -0.13160
C474        C  0.28013024  0.51394104  0.95184790     0.24850
C475        C  0.30765217  0.04577759  0.95362086    -0.23260
C476        C  0.30365735  0.07293270  0.96109214     0.19760
C477        C  0.27230838  0.06799164  0.96899875     0.24790
C478        C  0.24542618  0.03598628  0.96933848    -0.23200
C479        C  0.24931879  0.50918083  0.95964766     0.19690
F480        F  0.22348288  0.47800224  0.96183539    -0.13160
F481        F  0.28329634  0.48694698  0.94791090    -0.15520
F482        F  0.26823994  0.09392228  0.97818844    -0.15530
F483        F  0.33012919  0.10360877  0.96358282    -0.13160
C484        C  0.97139247  0.22619469  0.92652794     0.24850
C485        C  0.44833485  0.19890784  0.95191938    -0.23260
C486        C  0.42212940  0.20005127  0.97316486     0.19760
C487        C  0.42246905  0.22982240  0.97591035     0.24790
C488        C  0.44882641  0.25831897  0.95700223    -0.23200
C489        C  0.97169906  0.25552388  0.92914826     0.19690
F490        F  0.99803899  0.28220722  0.91062429    -0.13160
F491        F  0.99744825  0.22676076  0.90571293    -0.15520
F492        F  0.39900481  0.23150739  0.00068578    -0.15530
F493        F  0.39832945  0.17336699  0.99537798    -0.13160
C494        C  0.32920564  0.43192558  0.32055830     0.24850
C495        C  0.30364933  0.43429283  0.30009329    -0.23260
C496        C  0.27799736  0.40774891  0.27727539     0.19760
C497        C  0.27728390  0.37792870  0.27653433     0.24790
C498        C  0.30230682  0.37546981  0.29850257    -0.23200
C499        C  0.32859021  0.40256495  0.31965080     0.19690
F500        F  0.35315259  0.40015077  0.34036342    -0.13160
F501        F  0.35435652  0.45800305  0.34209202    -0.15520
F502        F  0.25225938  0.35155115  0.25559799    -0.15530
F503        F  0.25372863  0.41070200  0.25691628    -0.13160
C504        C  0.06592738  0.15209684  0.40616119     0.24850
C505        C  0.03774605  0.12893121  0.38282465    -0.23260
C506        C  0.03521269  0.09944890  0.36788684     0.19760
C507        C  0.06239151  0.09521471  0.37089622     0.24790
C508        C  0.09197794  0.12046991  0.38884919    -0.23200
C509        C  0.09276572  0.14790300  0.40929838     0.19690
F510        F  0.12105646  0.17349913  0.42566401    -0.13160
F511        F  0.06964935  0.18135273  0.41961367    -0.15520
F512        F  0.06095306  0.06822777  0.35209779    -0.15530
F513        F  0.00760900  0.07633414  0.34661243    -0.13160
Zn514      Zn  0.37738871  0.57434324  0.15703378     1.49720
Zn515      Zn  0.44282737  0.63944215  0.16980774     1.49360
Zn516      Zn  0.43175955  0.57304117  0.22052488     1.49110
Zn517      Zn  0.44417629  0.57798923  0.11885415     1.49480
O518        O  0.42404974  0.59154163  0.16667198    -1.82870
O519        O  0.36240574  0.60803924  0.15551424    -0.73500
O520        O  0.47217234  0.65798590  0.22718117    -0.73320
O521        O  0.39150370  0.55234467  0.25905396    -0.72840
O522        O  0.40791393  0.65353229  0.17376541    -0.73520
O523        O  0.35242641  0.54673909  0.21068386    -0.73120
O524        O  0.46184972  0.61012252  0.25665743    -0.73700
O525        O  0.46945573  0.55556684  0.14009948    -0.73090
O526        O  0.46407796  0.65568637  0.10745152    -0.73850
O527        O  0.45240473  0.54318535  0.21172623    -0.73240
O528        O  0.47341842  0.61670384  0.08088331    -0.73710
O529        O  0.41006814  0.54936862  0.07242167    -0.73610
O530        O  0.36626898  0.55182253  0.09593084    -0.73400
C531        C  0.37716606  0.63839286  0.16533132     0.78390
C532        C  0.47553038  0.64107030  0.25872672     0.78880
C533        C  0.36171024  0.54292693  0.25001779     0.77840
C534        C  0.46852179  0.54145047  0.17770924     0.78210
C535        C  0.47371686  0.64362526  0.07597624     0.79350
C536        C  0.38128783  0.54457562  0.06587351     0.78400
C537        C  0.01528251  0.63941479  0.36584575     0.04380
C538        C  0.01029065  0.63978114  0.31890125    -0.11770
C539        C  0.49382177  0.65516248  0.30112342     0.01880
C540        C  0.48691258  0.67471132  0.33019459    -0.10290
C541        C  0.49290089  0.67483117  0.37751508     0.04370
C542        C  0.00452311  0.65514956  0.39514461    -0.09710
H543        H  0.01789149  0.62673707  0.29605720     0.09970
H544        H  0.47538646  0.68791708  0.31694222     0.07500
H545        H  0.00906632  0.65532810  0.43160565     0.07350
C546        C  0.30485162  0.96511292  0.30400527     0.04380
C547        C  0.32208841  0.48855105  0.27127569    -0.11770
C548        C  0.33704075  0.52149113  0.28268895     0.01880
C549        C  0.33218430  0.53125804  0.32658047    -0.10290
C550        C  0.31185945  0.50667405  0.35821687     0.04370
C551        C  0.29929560  0.97385123  0.34668086    -0.09710
H552        H  0.32770938  0.98110860  0.23895406     0.09970
H553        H  0.34331012  0.55695621  0.33532426     0.07500
H554        H  0.28595106  0.95471893  0.37188251     0.07350
C555        C  0.45779717  0.67486593  0.96655421     0.04380
C556        C  0.46005560  0.67011897  0.01358785    -0.11770
C557        C  0.47948326  0.65741452  0.02947464     0.01880
C558        C  0.49919055  0.65247739  0.99817692    -0.10290
C559        C  0.99692627  0.65736689  0.95120090     0.04370
C560        C  0.97360763  0.66492041  0.93546927    -0.09710
H561        H  0.44707651  0.67672815  0.03797219     0.09970
H562        H  0.51590817  0.64461595  0.01014815     0.07110
H563        H  0.97187909  0.66836951  0.89907901     0.07350
C564        C  0.33939531  0.54812063  0.95922401     0.04380
C565        C  0.35139671  0.55273924  0.00372488    -0.11770
C566        C  0.36715334  0.53617079  0.01958017     0.01880
C567        C  0.36992022  0.51396226  0.99017725    -0.10290
C568        C  0.35881147  0.01082086  0.94451345     0.04370
C569        C  0.34729661  0.03093829  0.92824115    -0.09710
H570        H  0.34590128  0.56714325  0.02714842     0.09970
H571        H  0.37993127  0.49917425  0.00262074     0.07500
H572        H  0.33707609  0.02706096  0.89395366     0.07350
Zn573      Zn  0.23523808  0.77336940  0.54520145     1.49720
Zn574      Zn  0.23004752  0.75683857  0.44611016     1.49360
Zn575      Zn  0.29891797  0.77138814  0.49733739     1.49110
Zn576      Zn  0.23583463  0.70641072  0.51372620     1.49480
O577        O  0.25081691  0.75237376  0.50056493    -1.82870
O578        O  0.21865940  0.80352917  0.52023132    -0.73500
O579        O  0.26643236  0.78100371  0.40503516    -0.73320
O580        O  0.31449094  0.79892539  0.55608081    -0.72840
O581        O  0.20357743  0.78213806  0.45123163    -0.73520
O582        O  0.27101397  0.79817071  0.58867668    -0.73120
O583        O  0.31542547  0.79481446  0.43435294    -0.73700
O584        O  0.27092935  0.69275871  0.52580347    -0.73090
O585        O  0.20520491  0.71389872  0.41441429    -0.73850
O586        O  0.31558668  0.73752066  0.50305686    -0.73240
O587        O  0.21129022  0.67918344  0.45945558    -0.73710
O588        O  0.20376188  0.69481360  0.56494499    -0.73610
O589        O  0.19900758  0.73817935  0.58366837    -0.73400
C590        C  0.20410018  0.80140892  0.48253904     0.78390
C591        C  0.29734339  0.79444978  0.40132737     0.78880
C592        C  0.30067883  0.80496419  0.58966696     0.77840
C593        C  0.30152628  0.70756725  0.51619870     0.78210
C594        C  0.20111483  0.68562786  0.42279990     0.79350
C595        C  0.19042194  0.70806285  0.58801651     0.78400
Zn596      Zn  0.36829184  0.96683638  0.82212381     1.49720
Zn597      Zn  0.31765657  0.91072029  0.89343408     1.49360
Zn598      Zn  0.30159949  0.90159014  0.78618616     1.49110
Zn599      Zn  0.36836210  0.90414994  0.82353262     1.49480
O600        O  0.33809812  0.92040668  0.83219410    -1.82870
O601        O  0.36436466  0.99179724  0.87325856    -0.73500
O602        O  0.26486926  0.88436503  0.88966223    -0.73320
O603        O  0.30955072  0.93560061  0.73759434    -0.72840
O604        O  0.33623472  0.95439748  0.92723352    -0.73520
O605        O  0.35780963  0.97719083  0.76036145    -0.73120
O606        O  0.25496800  0.88043687  0.81476181    -0.73700
O607        O  0.35176882  0.87325713  0.77130378    -0.73090
O608        O  0.33450470  0.88500035  0.92928521    -0.73850
O609        O  0.30377140  0.86671973  0.74834653    -0.73240
O610        O  0.36710434  0.87984946  0.87874794    -0.73710
O611        O  0.41774119  0.93683886  0.81596623    -0.73610
O612        O  0.41770697  0.98314587  0.82200332    -0.73400
C613        C  0.35375657  0.98414502  0.91405209     0.78390
C614        C  0.24439741  0.87462767  0.85600150     0.78880
C615        C  0.33530523  0.96320468  0.73030638     0.77840
C616        C  0.32655216  0.85978990  0.74550420     0.78210
C617        C  0.35409228  0.87488943  0.91808427     0.79350
C618        C  0.43353262  0.96796192  0.81880206     0.78400
C619        C  0.34851166  0.80286326  0.68938703     0.04380
C620        C  0.33629563  0.80008737  0.64544012    -0.11770
C621        C  0.31735859  0.81417339  0.63414729     0.01880
C622        C  0.31114569  0.83192959  0.66782924    -0.10290
C623        C  0.32489539  0.83574687  0.71198556     0.04370
C624        C  0.34218388  0.81972775  0.72274910    -0.09710
H625        H  0.34210385  0.78713529  0.61987266     0.09970
H626        H  0.29701000  0.84353985  0.65928523     0.07500
H627        H  0.35371365  0.82307272  0.75600967     0.07350
C628        C  0.34217309  0.97755508  0.68393408     0.04380
C629        C  0.31756349  0.97376130  0.65295333    -0.11770
C630        C  0.32648579  0.98711924  0.60837284     0.01880
C631        C  0.35887383  0.50043513  0.59397373    -0.10290
C632        C  0.38343258  0.50742794  0.62576337     0.04370
C633        C  0.37510663  0.99514594  0.67008918    -0.09710
H634        H  0.29226348  0.96219557  0.66414368     0.09970
H635        H  0.36589404  0.51048753  0.55973107     0.07500
H636        H  0.39458159  0.50083277  0.69451327     0.07350
C637        C  0.35871374  0.85292242  0.94820004     0.04380
C638        C  0.37321587  0.86180257  0.99195841    -0.11770
C639        C  0.37344675  0.83752942  0.01988026     0.01880
C640        C  0.35920865  0.80530022  0.00389365    -0.10290
C641        C  0.34229119  0.79651061  0.96262340     0.04370
C642        C  0.34511858  0.82071669  0.93290183    -0.09710
H643        H  0.38330389  0.88665892  0.00429066     0.09970
H644        H  0.35684174  0.78600215  0.02659929     0.07500
H645        H  0.33125098  0.81350290  0.90114451     0.07350
Zn646      Zn  0.02690078  0.76845368  0.43983860     1.49720
Zn647      Zn  0.04227736  0.77311016  0.54521114     1.49360
Zn648      Zn  0.47635661  0.77295027  0.51145627     1.49110
Zn649      Zn  0.47608249  0.70883424  0.50602598     1.49480
O650        O  0.50550013  0.75585415  0.50005419    -1.82870
O651        O  0.07850021  0.79352023  0.44278363    -0.73500
O652        O  0.03646512  0.79820448  0.59564278    -0.73320
O653        O  0.48205217  0.80396841  0.46044402    -0.72840
O654        O  0.08770423  0.79857343  0.51765653    -0.73520
O655        O  0.01083130  0.79487706  0.40756683    -0.73120
O656        O  0.48803659  0.79192711  0.57508025    -0.73700
O657        O  0.42642887  0.69252319  0.51578718    -0.73090
O658        O  0.04179352  0.73663590  0.58020550    -0.73850
O659        O  0.42646981  0.73917923  0.51278382    -0.73240
O660        O  0.49455679  0.69397557  0.55693017    -0.73710
O661        O  0.47866835  0.68805904  0.44783718    -0.73610
O662        O  0.01167787  0.72877118  0.40100002    -0.73400
C663        C  0.09838649  0.80353804  0.47675195     0.78390
C664        C  0.01073187  0.79931791  0.60469805     0.78880
C665        C  0.49409194  0.80781380  0.42022482     0.77840
C666        C  0.41060837  0.70797093  0.51555696     0.78210
C667        C  0.02029250  0.70648306  0.58207827     0.79350
C668        C  0.49301214  0.69849223  0.40943965     0.78400
Zn669      Zn  0.44317382  0.81004906  0.17894528     1.49720
Zn670      Zn  0.44769091  0.87265723  0.12403131     1.49360
Zn671      Zn  0.37860511  0.80997052  0.15927823     1.49110
Zn672      Zn  0.43063905  0.86642091  0.22361717     1.49480
O673        O  0.42489063  0.83926640  0.17165375    -1.82870
O674        O  0.46495238  0.81376125  0.11687170    -0.73500
O675        O  0.41614302  0.86618317  0.07326131    -0.73320
O676        O  0.36346862  0.76115724  0.15757214    -0.72840
O677        O  0.48012654  0.86432135  0.09303574    -0.73520
O678        O  0.40751666  0.76072822  0.18243799    -0.73120
O679        O  0.36995678  0.82198995  0.09698414    -0.73700
O680        O  0.38971136  0.84622600  0.26048213    -0.73090
O681        O  0.47122995  0.92049802  0.14403535    -0.73850
O682        O  0.35190950  0.81224845  0.21103205    -0.73240
O683        O  0.45006574  0.91662982  0.21279193    -0.73710
O684        O  0.46076163  0.86165149  0.26262851    -0.73610
O685        O  0.47137736  0.82304574  0.23871441    -0.73400
C686        C  0.47704775  0.83631815  0.08639678     0.78390
C687        C  0.38679289  0.84332796  0.06643844     0.78880
C688        C  0.37737513  0.74528963  0.17017074     0.77840
C689        C  0.36021776  0.82544427  0.25045133     0.78210
C690        C  0.46805124  0.93413037  0.17964801     0.79350
C691        C  0.47441940  0.84462213  0.26804986     0.78400
C692        C  0.30178468  0.84492428  0.30204085     0.04380
C693        C  0.29640024  0.83109950  0.34514569    -0.11770
C694        C  0.31022196  0.81224132  0.35812284     0.01880
C695        C  0.33076520  0.80809927  0.32694589    -0.10290
C696        C  0.33482551  0.82150211  0.28224594     0.04370
C697        C  0.31900390  0.83843832  0.26968362    -0.09710
H698        H  0.28286990  0.83686305  0.36992158     0.09970
H699        H  0.34275438  0.79455135  0.33671180     0.07500
H700        H  0.32447730  0.85112842  0.23699512     0.07350
C701        C  0.49164621  0.83058544  0.38889092     0.04380
C702        C  0.48660164  0.82459079  0.34141881    -0.11770
C703        C  0.49167095  0.85032657  0.31204620     0.01880
C704        C  0.50588391  0.88220028  0.32990451    -0.10290
C705        C  0.01011070  0.88778780  0.37707084     0.04370
C706        C  0.99974513  0.86115471  0.40646924    -0.09710
H707        H  0.47741054  0.80008546  0.32812998     0.09970
H708        H  0.01299850  0.90261748  0.30668680     0.07500
H709        H  0.00278585  0.86529226  0.44309196     0.07350
Zn710      Zn  0.23624343  0.53530792  0.51431344     1.49720
Zn711      Zn  0.23166539  0.98013780  0.44677788     1.49360
Zn712      Zn  0.29964482  0.53317353  0.49812555     1.49110
Zn713      Zn  0.23547446  0.96868996  0.54925426     1.49480
O714        O  0.25142110  0.50457957  0.50248771    -1.82870
O715        O  0.20999730  0.53648716  0.46125757    -0.73500
O716        O  0.26760205  0.99293083  0.40481461    -0.73320
O717        O  0.31699299  0.58348832  0.50961335    -0.72840
O718        O  0.20565225  0.99692270  0.41532958    -0.73520
O719        O  0.27115093  0.58383326  0.52362832    -0.73120
O720        O  0.31596621  0.52981383  0.43345719    -0.73700
O721        O  0.27336081  0.97386117  0.58479105    -0.73090
O722        O  0.20694291  0.92891793  0.45093492    -0.73850
O723        O  0.31612019  0.51375806  0.54692036    -0.73240
O724        O  0.21443242  0.92168266  0.52373320    -0.73710
O725        O  0.20337718  0.97095145  0.59326618    -0.73610
O726        O  0.20662815  0.51710407  0.56793147    -0.73400
C727        C  0.20027680  0.52014612  0.42436500     0.78390
C728        C  0.29832841  0.51148842  0.40075284     0.78880
C729        C  0.30221886  0.59943963  0.51845937     0.77840
C730        C  0.30401911  0.99165036  0.57831009     0.78210
C731        C  0.20391252  0.90986272  0.48409124     0.79350
C732        C  0.19481101  0.99256992  0.59513218     0.78400
Zn733      Zn  0.03941211  0.64110789  0.82987921     1.49720
Zn734      Zn  0.10435594  0.64326826  0.83471775     1.49360
Zn735      Zn  0.10397970  0.70827704  0.79371604     1.49110
Zn736      Zn  0.09531117  0.69473395  0.89900821     1.49480
O737        O  0.08592874  0.67207559  0.84012295    -1.82870
O738        O  0.02491912  0.59160610  0.82835108    -0.73500
O739        O  0.12721720  0.65482667  0.77383498    -0.73320
O740        O  0.06885296  0.70213575  0.74802395    -0.72840
O741        O  0.07211696  0.59287707  0.83205551    -0.73520
O742        O  0.03001666  0.65154931  0.76719050    -0.73120
O743        O  0.13371327  0.70280526  0.75059319    -0.73700
O744        O  0.12322169  0.74691489  0.89434108    -0.73090
O745        O  0.13261254  0.65057062  0.88976592    -0.73850
O746        O  0.12915009  0.75539872  0.81939097    -0.73240
O747        O  0.11951104  0.67887611  0.93823667    -0.73710
O748        O  0.05211010  0.67899858  0.93045037    -0.73610
O749        O  0.01352496  0.64632917  0.88037246    -0.73400
C750        C  0.04091664  0.57638015  0.82914068     0.78390
C751        C  0.13597629  0.67744467  0.74379288     0.78880
C752        C  0.04300795  0.67514618  0.73848563     0.77840
C753        C  0.13478357  0.76667081  0.86013027     0.78210
C754        C  0.13400051  0.66294281  0.92912652     0.79350
C755        C  0.02214452  0.66048551  0.91921470     0.78400
C756        C  0.12947784  0.62956206  0.63872822     0.04380
C757        C  0.14476850  0.65396979  0.60599239    -0.11770
C758        C  0.16389701  0.68663936  0.61947192     0.01880
C759        C  0.16169080  0.69562345  0.66484526    -0.10290
C760        C  0.14296144  0.67084599  0.69717152     0.04370
C761        C  0.12756040  0.63795004  0.68368584    -0.09710
H762        H  0.14679436  0.64686248  0.57136330     0.09970
H763        H  0.17563646  0.72102822  0.67539442     0.07500
H764        H  0.11528718  0.61851475  0.70870684     0.07350
C765        C  0.03015814  0.66855800  0.69109045     0.04380
C766        C  0.01294071  0.63568713  0.67680683    -0.11770
C767        C  0.50300482  0.62769706  0.63150468     0.01880
C768        C  0.51170107  0.65238755  0.59941963    -0.10290
C769        C  0.02465505  0.68469533  0.61359041     0.04370
C770        C  0.03573098  0.69341519  0.65919056    -0.09710
H771        H  0.50584689  0.61596818  0.70131045     0.09970
H772        H  0.50306942  0.64563728  0.56447011     0.07500
H773        H  0.04679290  0.71866632  0.67018799     0.07350
Zn774      Zn  0.20145336  0.60180172  0.12387746     1.49720
Zn775      Zn  0.20411655  0.60319352  0.22279952     1.49360
Zn776      Zn  0.14196167  0.60658388  0.17240659     1.49110
Zn777      Zn  0.14067865  0.53910138  0.17393838     1.49480
O778        O  0.17113291  0.58734804  0.17348313    -1.82870
O779        O  0.25203866  0.62861844  0.13330268    -0.73500
O780        O  0.19414874  0.63012737  0.26398204    -0.73320
O781        O  0.14981855  0.63402091  0.11282082    -0.72840
O782        O  0.25398796  0.62898265  0.20844996    -0.73520
O783        O  0.18891362  0.62602515  0.08407549    -0.73120
O784        O  0.14995157  0.62949839  0.23437569    -0.73700
O785        O  0.09139537  0.52516157  0.17272233    -0.73090
O786        O  0.19449013  0.56558593  0.26334016    -0.73850
O787        O  0.09222510  0.57236438  0.17316011    -0.73240
O788        O  0.14687167  0.52459071  0.23701975    -0.73710
O789        O  0.14915579  0.51775056  0.11732012    -0.73610
O790        O  0.19090175  0.56349985  0.08886413    -0.73400
C791        C  0.26878976  0.63704237  0.17008913     0.78390
C792        C  0.17030515  0.63538698  0.26712217     0.78880
C793        C  0.16973026  0.63740597  0.08068955     0.77840
C794        C  0.07606096  0.54107085  0.17346159     0.78210
C795        C  0.16850654  0.53794980  0.26851292     0.79350
C796        C  0.17092300  0.53298107  0.08654117     0.78400
C797        C  0.12343788  0.62371439  0.37545050     0.04380
C798        C  0.14909445  0.63720932  0.40693949    -0.11770
C799        C  0.18060187  0.65911360  0.39161964     0.01880
C800        C  0.18809606  0.66087180  0.34480297    -0.10290
C801        C  0.16300063  0.64230521  0.31322362     0.04370
C802        C  0.13049515  0.62495285  0.32862928    -0.09710
H803        H  0.14344805  0.63674736  0.44303965     0.09970
H804        H  0.21302914  0.67674879  0.33308878     0.07500
H805        H  0.11066794  0.61324708  0.30407366     0.07350
C806        C  0.17955600  0.52583402  0.39313766     0.04380
C807        C  0.14909584  0.01908803  0.40951782    -0.11770
C808        C  0.12269672  0.00765221  0.37923128     0.01880
C809        C  0.12893885  0.51175421  0.33192821    -0.10290
C810        C  0.16100547  0.52463103  0.31526882     0.04370
C811        C  0.18611098  0.52993359  0.34601256    -0.09710
H812        H  0.14445379  0.01615368  0.44606476     0.09970
H813        H  0.10886306  0.00435800  0.30801422     0.07500
H814        H  0.21044517  0.53712062  0.33346713     0.07350
C815        C  0.15724765  0.66344689  0.96240366     0.04380
C816        C  0.14874473  0.65062142  0.00745746    -0.11770
C817        C  0.17406008  0.65605918  0.03835139     0.01880
C818        C  0.20665868  0.67546332  0.02446295    -0.10290
C819        C  0.21447154  0.68763508  0.98030906     0.04370
C820        C  0.19000310  0.68097708  0.94894200    -0.09710
H821        H  0.12324898  0.63585634  0.01743179     0.09970
H822        H  0.22646510  0.68140673  0.04850085     0.07500
H823        H  0.19659146  0.69229624  0.91532789     0.07350
Zn824      Zn  0.03948877  0.90152653  0.83496178     1.49720
Zn825      Zn  0.10411569  0.96519668  0.84043093     1.49360
Zn826      Zn  0.09506580  0.90346374  0.90331301     1.49110
Zn827      Zn  0.10569569  0.90188492  0.79820824     1.49480
O828        O  0.08619425  0.91798989  0.84456859    -1.82870
O829        O  0.02506334  0.93612742  0.82376757    -0.73500
O830        O  0.12973486  0.98496299  0.89739322    -0.73320
O831        O  0.05282536  0.87699002  0.93698103    -0.72840
O832        O  0.07136839  0.98209030  0.83632453    -0.73520
O833        O  0.01487658  0.87672140  0.89105825    -0.73120
O834        O  0.11961961  0.94282318  0.94307475    -0.73700
O835        O  0.13397899  0.88373754  0.82362658    -0.73090
O836        O  0.13010369  0.97990364  0.78171122    -0.73850
O837        O  0.12154933  0.87820070  0.89752260    -0.73240
O838        O  0.13131417  0.93687104  0.75236517    -0.73710
O839        O  0.06962210  0.86588686  0.76112412    -0.73610
O840        O  0.02615982  0.86928765  0.78348193    -0.73400
C841        C  0.04067510  0.96731104  0.82818787     0.78390
C842        C  0.13221767  0.97337417  0.93569877     0.78880
C843        C  0.02328536  0.86915450  0.92849248     0.77840
C844        C  0.13619241  0.87394594  0.86344703     0.78210
C845        C  0.13723395  0.96621356  0.74950963     0.79350
C846        C  0.03923798  0.85659808  0.75870045     0.78400
C847        C  0.46136130  0.79107811  0.70825421     0.04380
C848        C  0.47128823  0.78511565  0.66652454    -0.11770
C849        C  0.00391639  0.80389256  0.65240926     0.01880
C850        C  0.02772255  0.82587001  0.68355403    -0.10290
C851        C  0.01767546  0.82989531  0.72754848     0.04370
C852        C  0.48460270  0.81121735  0.74000833    -0.09710
H853        H  0.45248372  0.76930409  0.64231263     0.09970
H854        H  0.05300228  0.84102058  0.67278563     0.07500
H855        H  0.47611113  0.81607487  0.77193722     0.07350
C856        C  0.13728352  0.51435851  0.64830559     0.04380
C857        C  0.15288108  0.50584641  0.61556940    -0.11770
C858        C  0.17002249  0.99005473  0.62808628     0.01880
C859        C  0.16586612  0.97679069  0.67255031    -0.10290
C860        C  0.14730564  0.98293594  0.70500905     0.04370
C861        C  0.13429312  0.50287073  0.69283515    -0.09710
H862        H  0.15507730  0.51541081  0.58113886     0.09970
H863        H  0.17761553  0.96297150  0.68217058     0.07500
H864        H  0.12178158  0.50957842  0.71793148     0.07350
C865        C  0.45800464  0.79112817  0.97456648     0.04380
C866        C  0.46128726  0.79679660  0.02204257    -0.11770
C867        C  0.48176243  0.82855012  0.03911389     0.01880
C868        C  0.50166018  0.85369734  0.00824354    -0.10290
C869        C  0.99786945  0.84782822  0.96094849     0.04370
C870        C  0.97311507  0.81779427  0.94468584    -0.09710
H871        H  0.44839987  0.77654154  0.04562794     0.09970
H872        H  0.51960173  0.87775185  0.02080628     0.07500
H873        H  0.97035905  0.81353110  0.90804702     0.07350
C874        C  0.21318737  0.52891730  0.98347583     0.04380
C875        C  0.18764772  0.01287413  0.95300551    -0.11770
C876        C  0.15557900  0.99596687  0.96873234     0.01880
C877        C  0.14842022  0.49831931  0.01509586    -0.10290
C878        C  0.17461867  0.51751050  0.04518346     0.04370
C879        C  0.20693415  0.53075154  0.02939843    -0.09710
H880        H  0.19312871  0.01036298  0.91763675     0.09970
H881        H  0.12321635  0.48707472  0.02663362     0.07500
H882        H  0.22743958  0.54382184  0.05267676     0.07350
C883        C  0.48668958  0.52304070  0.18120842     0.04380
C884        C  0.46953263  0.98849912  0.18485920    -0.11770
C885        C  0.48630221  0.97078587  0.18204711     0.01880
C886        C  0.02085278  0.98821407  0.17753147    -0.10290
C887        C  0.03895855  0.52288271  0.17580106     0.04370
C888        C  0.02129357  0.53988659  0.17677718    -0.09710
H889        H  0.44298537  0.97532123  0.18715590     0.09970
H890        H  0.03362927  0.97455124  0.17550390     0.07500
H891        H  0.03442181  0.56636813  0.17408640     0.07350
C892        C  0.32059220  0.68933453  0.51906473     0.04380
C893        C  0.35542319  0.70631262  0.51747072    -0.11770
C894        C  0.37339391  0.68946134  0.51796282     0.01880
C895        C  0.35560999  0.65469193  0.51932909    -0.10290
C896        C  0.32088547  0.63669374  0.52071892     0.04370
C897        C  0.30388465  0.65452023  0.52123397    -0.09710
H898        H  0.36861517  0.73281897  0.51564220     0.09970
H899        H  0.36888020  0.64149471  0.51873064     0.07500
H900        H  0.27730175  0.64111955  0.52162084     0.07350
C901        C  0.18666522  0.82073844  0.47627282     0.04380
C902        C  0.15213387  0.80411044  0.47109301    -0.11770
C903        C  0.13472184  0.82134379  0.47005452     0.01880
C904        C  0.15235918  0.85583815  0.47214337    -0.10290
C905        C  0.18672112  0.87334786  0.47731840     0.04370
C906        C  0.20359611  0.85548723  0.48040139    -0.09710
H907        H  0.13855615  0.77755441  0.47090226     0.09970
H908        H  0.13905033  0.86903043  0.47261142     0.07500
H909        H  0.22987002  0.86861893  0.48609376     0.07350
C910        C  0.02282127  0.98647643  0.82488239     0.04380
C911        C  0.48824153  0.96970726  0.82081824    -0.11770
C912        C  0.47054408  0.98659320  0.81993453     0.01880
C913        C  0.48824740  0.52125146  0.82254667    -0.10290
C914        C  0.02289799  0.53919223  0.82632000     0.04370
C915        C  0.03981757  0.52132213  0.82748664    -0.09710
H916        H  0.47489231  0.94318738  0.81939069     0.09970
H917        H  0.47488626  0.53435972  0.82203363     0.07500
H918        H  0.06629778  0.53457136  0.83070239     0.07350
C919        C  0.15502233  0.85610394  0.86876231     0.04380
C920        C  0.18979669  0.87305561  0.86567748    -0.11770
C921        C  0.20751752  0.85607085  0.86400200     0.01880
C922        C  0.18927934  0.82114765  0.86390083    -0.10290
C923        C  0.15438440  0.80345342  0.86683031     0.04370
C924        C  0.13784612  0.82143072  0.86975385    -0.09710
H925        H  0.20304190  0.89954583  0.86312929     0.09970
H926        H  0.20218894  0.80772578  0.86003519     0.07500
H927        H  0.11124312  0.80830526  0.87001570     0.07350
C928        C  0.35829018  0.65626292  0.16700378     0.04380
C929        C  0.37517795  0.69079048  0.16906649    -0.11770
C930        C  0.35831525  0.70840136  0.16981555     0.01880
C931        C  0.32344763  0.69058943  0.16939361    -0.10290
C932        C  0.30572044  0.65588464  0.16839497     0.04370
C933        C  0.32348368  0.63909373  0.16669730    -0.09710
H934        H  0.40177073  0.70415761  0.16906282     0.09970
H935        H  0.31005646  0.70366678  0.17037919     0.07500
H936        H  0.31009053  0.61255375  0.16571807     0.07350
C937        C  0.10218163  0.54016326  0.64683290     0.24850
C938        C  0.13230754  0.54183935  0.63857180    -0.23260
C939        C  0.15974392  0.57145170  0.62494931     0.19760
C940        C  0.15752457  0.59933024  0.62094030     0.24790
C941        C  0.12785723  0.59827563  0.63092707    -0.23200
C942        C  0.09994769  0.56848406  0.64301973     0.19690
F943        F  0.07135914  0.56737064  0.65356801    -0.13160
F944        F  0.07560290  0.51160780  0.66030925    -0.15520
F945        F  0.18551468  0.62813513  0.61231134    -0.15530
F946        F  0.18966274  0.57414542  0.61959969    -0.13160
C947        C  0.06135553  0.97908094  0.37536209     0.24850
C948        C  0.08998866  0.98229347  0.39526295    -0.23260
C949        C  0.08790522  0.95608964  0.42123258     0.19760
C950        C  0.05960898  0.92586967  0.42049911     0.24790
C951        C  0.03267266  0.92110884  0.39395868    -0.23200
C952        C  0.03264770  0.94847836  0.37478991     0.19690
F953        F  0.00610582  0.94483574  0.35142157    -0.13160
F954        F  0.06221804  0.00452171  0.35234783    -0.15520
F955        F  0.06116582  0.90030918  0.43926040    -0.15530
F956        F  0.11473048  0.95748142  0.44082855    -0.13160
C957        C  0.30207637  0.73834959  0.94197505     0.24850
C958        C  0.31000277  0.76760198  0.96447755    -0.23260
C959        C  0.28621486  0.77059345  0.98946249     0.19760
C960        C  0.25496383  0.74436326  0.99315123     0.24790
C961        C  0.24705128  0.71476327  0.97211096    -0.23200
C962        C  0.27024236  0.71160529  0.94588623     0.19690
F963        F  0.26216582  0.68279432  0.92514083    -0.13160
F964        F  0.32495470  0.73578290  0.91702537    -0.15520
F965        F  0.23231293  0.74758888  0.01786903    -0.15530
F966        F  0.29350015  0.79914276  0.01054341    -0.13160
C967        C  0.44551822  0.59499580  0.60879308     0.24850
C968        C  0.47459365  0.59570004  0.62146785    -0.23260
C969        C  0.47436293  0.56639754  0.63079275     0.19760
C970        C  0.44479845  0.53658616  0.62891063     0.24790
C971        C  0.41562700  0.53629704  0.61790243    -0.23200
C972        C  0.41642929  0.56571422  0.60705731     0.19690
F973        F  0.38846463  0.56672691  0.59963140    -0.13160
F974        F  0.44451333  0.62305853  0.60267560    -0.15520
F975        F  0.44425954  0.50837504  0.64005021    -0.15530
F976        F  0.50228755  0.56692319  0.64372446    -0.13160
C977        C  0.37407613  0.77182056  0.72079473     0.24850
C978        C  0.37627480  0.79825823  0.69578908    -0.23260
C979        C  0.40610063  0.82229623  0.67736289     0.19760
C980        C  0.43364537  0.81972522  0.68287088     0.24790
C981        C  0.43163177  0.79287694  0.70656675    -0.23200
C982        C  0.40201385  0.76898052  0.72598402     0.19690
F983        F  0.40027408  0.74324595  0.74926512    -0.13160
F984        F  0.34512385  0.74900947  0.73947205    -0.15520
F985        F  0.46245971  0.84327905  0.66451220    -0.15530
F986        F  0.40844593  0.84841275  0.65419420    -0.13160
C987        C  0.28013427  0.01394044  0.95185298     0.24850
C988        C  0.30765016  0.54577653  0.95362344    -0.23260
C989        C  0.30365823  0.57293323  0.96109630     0.19760
C990        C  0.27230987  0.56799512  0.96899796     0.24790
C991        C  0.24542531  0.53599108  0.96933081    -0.23200
C992        C  0.24932226  0.00917735  0.95965789     0.19690
F993        F  0.22348856  0.97799780  0.96185128    -0.13160
F994        F  0.28330351  0.98694814  0.94791751    -0.15520
F995        F  0.26824414  0.59392703  0.97819063    -0.15530
F996        F  0.33013201  0.60360768  0.96359398    -0.13160
C997        C  0.97139323  0.72619485  0.92652808     0.24850
C998        C  0.44833473  0.69890750  0.95191793    -0.23260
C999        C  0.42212908  0.70005078  0.97316303     0.19760
C1000       C  0.42246897  0.72982199  0.97590948     0.24790
C1001       C  0.44882670  0.75831880  0.95700253    -0.23200
C1002       C  0.97170021  0.75552417  0.92914962     0.19690
F1003       F  0.99804084  0.78220789  0.91062762    -0.13160
F1004       F  0.99744938  0.72676111  0.90571398    -0.15520
F1005       F  0.39900438  0.73150671  0.00068443    -0.15530
F1006       F  0.39832851  0.67336611  0.99537471    -0.13160
C1007       C  0.32920877  0.93192936  0.32056144     0.24850
C1008       C  0.30365254  0.93429541  0.30009370    -0.23260
C1009       C  0.27800172  0.90775075  0.27727540     0.19760
C1010       C  0.27728917  0.87793099  0.27653691     0.24790
C1011       C  0.30231170  0.87547321  0.29850833    -0.23200
C1012       C  0.32859410  0.90256906  0.31965675     0.19690
F1013       F  0.35315641  0.90015604  0.34037174    -0.13160
F1014       F  0.35435875  0.95800767  0.34209509    -0.15520
F1015       F  0.25226582  0.85155278  0.25559999    -0.15530
F1016       F  0.25373313  0.91070268  0.25691358    -0.13160
C1017       C  0.06592614  0.65209635  0.40616254     0.24850
C1018       C  0.03774554  0.62893104  0.38282435    -0.23260
C1019       C  0.03521286  0.59944922  0.36788576     0.19760
C1020       C  0.06239182  0.59521531  0.37089607     0.24790
C1021       C  0.09197780  0.62047046  0.38885031    -0.23200
C1022       C  0.09276473  0.64790291  0.40930030     0.19690
F1023       F  0.12105495  0.67349896  0.42566735    -0.13160
F1024       F  0.06964727  0.68135168  0.41961615    -0.15520
F1025       F  0.06095403  0.56822880  0.35209718    -0.15530
F1026       F  0.00760982  0.57633477  0.34660974    -0.13160
Zn1027     Zn  0.87738824  0.07434271  0.15703492     1.49720
Zn1028     Zn  0.94282703  0.13944193  0.16980819     1.49360
Zn1029     Zn  0.93175930  0.07304094  0.22052535     1.49110
Zn1030     Zn  0.94417569  0.07798880  0.11885479     1.49480
O1031       O  0.92404934  0.09154136  0.16667263    -1.82870
O1032       O  0.86240524  0.10803870  0.15551523    -0.73500
O1033       O  0.97217183  0.15798576  0.22718188    -0.73320
O1034       O  0.89150368  0.05234401  0.25905460    -0.72840
O1035       O  0.90791354  0.15353194  0.17376555    -0.73520
O1036       O  0.85242614  0.04673824  0.21068488    -0.73120
O1037       O  0.96184930  0.11012235  0.25665787    -0.73700
O1038       O  0.96945585  0.05556721  0.14010006    -0.73090
O1039       O  0.96407777  0.15568638  0.10745200    -0.73850
O1040       O  0.95240427  0.04318506  0.21172648    -0.73240
O1041       O  0.97341632  0.11670295  0.08088218    -0.73710
O1042       O  0.91006722  0.04936687  0.07242378    -0.73610
O1043       O  0.86626845  0.05182167  0.09593233    -0.73400
C1044       C  0.87716564  0.13839243  0.16533175     0.78390
C1045       C  0.97552985  0.14107012  0.25872739     0.78880
C1046       C  0.86171014  0.04292590  0.25001858     0.77840
C1047       C  0.96852155  0.04145045  0.17770960     0.78210
C1048       C  0.97371581  0.14362496  0.07597603     0.79350
C1049       C  0.88128703  0.04457409  0.06587545     0.78400
C1050       C  0.51528488  0.13941649  0.36584617     0.04380
C1051       C  0.51028915  0.13977908  0.31890223    -0.11770
C1052       C  0.99382104  0.15516213  0.30112432     0.01880
C1053       C  0.98691185  0.17471092  0.33019556    -0.10290
C1054       C  0.99289956  0.17483021  0.37751620     0.04370
C1055       C  0.50452847  0.15515417  0.39514455    -0.09710
H1056       H  0.51788796  0.12673307  0.29605866     0.09970
H1057       H  0.97538625  0.18791714  0.31694310     0.07500
H1058       H  0.50907399  0.15533508  0.43160521     0.07350
C1059       C  0.80484929  0.46510771  0.30400948     0.04380
C1060       C  0.82208834  0.98854975  0.27127595    -0.11770
C1061       C  0.83704087  0.02148977  0.28268971     0.01880
C1062       C  0.83218484  0.03125641  0.32658159    -0.10290
C1063       C  0.81186025  0.00667231  0.35821795     0.04370
C1064       C  0.79929279  0.47384429  0.34668615    -0.09710
H1065       H  0.82771125  0.48110664  0.23896116     0.09970
H1066       H  0.84331071  0.05695454  0.33532567     0.07500
H1067       H  0.78594550  0.45471077  0.37188511     0.07350
C1068       C  0.95779810  0.17486861  0.96655512     0.04380
C1069       C  0.96005596  0.17012060  0.01358858    -0.11770
C1070       C  0.97948268  0.15741489  0.02947478     0.01880
C1071       C  0.99918953  0.15247738  0.99817671    -0.10290
C1072       C  0.49693074  0.15737042  0.95120961     0.04370
C1073       C  0.47360941  0.16491976  0.93547664    -0.09710
H1074       H  0.94707710  0.17672985  0.03797323     0.09970
H1075       H  0.01590641  0.14461489  0.01014754     0.07110
H1076       H  0.47187859  0.16836499  0.89908577     0.07350
C1077       C  0.83939454  0.04811815  0.95922546     0.04380
C1078       C  0.85139544  0.05273671  0.00372660    -0.11770
C1079       C  0.86715246  0.03616874  0.01958224     0.01880
C1080       C  0.86992009  0.01396056  0.99017951    -0.10290
C1081       C  0.85880224  0.51080694  0.94453548     0.04370
C1082       C  0.84728858  0.53092487  0.92826169    -0.09710
H1083       H  0.84589955  0.06714048  0.02714992     0.09970
H1084       H  0.87993158  0.99917299  0.00262319     0.07500
H1085       H  0.83707268  0.52705064  0.89397158     0.07350
Zn1086     Zn  0.73523897  0.27337012  0.54519975     1.49720
Zn1087     Zn  0.73004271  0.25683649  0.44611082     1.49360
Zn1088     Zn  0.79891776  0.27138974  0.49732880     1.49110
Zn1089     Zn  0.73583534  0.20641153  0.51372473     1.49480
O1090       O  0.75081663  0.25237415  0.50056240    -1.82870
O1091       O  0.71866036  0.30352982  0.52023181    -0.73500
O1092       O  0.76642441  0.28100137  0.40503169    -0.73320
O1093       O  0.81449389  0.29893329  0.55606763    -0.72840
O1094       O  0.70357173  0.28213477  0.45123545    -0.73520
O1095       O  0.77101659  0.29817405  0.58867015    -0.73120
O1096       O  0.81542004  0.29481171  0.43433908    -0.73700
O1097       O  0.77093078  0.19276082  0.52580290    -0.73090
O1098       O  0.70520051  0.21389611  0.41441600    -0.73850
O1099       O  0.81558727  0.23752218  0.50305201    -0.73240
O1100       O  0.71129195  0.17918326  0.45945417    -0.73710
O1101       O  0.70376193  0.19481438  0.56494278    -0.73610
O1102       O  0.69900918  0.23818069  0.58366821    -0.73400
C1103       C  0.70409775  0.30140759  0.48254219     0.78390
C1104       C  0.79733495  0.29444669  0.40131735     0.78880
C1105       C  0.80068289  0.30497220  0.58965533     0.77840
C1106       C  0.80152742  0.20756916  0.51619628     0.78210
C1107       C  0.70111393  0.18562638  0.42279995     0.79350
C1108       C  0.69042244  0.20806382  0.58801495     0.78400
Zn1109     Zn  0.86829346  0.46683866  0.82213827     1.49720
Zn1110     Zn  0.81765405  0.41071328  0.89343508     1.49360
Zn1111     Zn  0.80160249  0.40159780  0.78618417     1.49110
Zn1112     Zn  0.86836275  0.40415173  0.82353118     1.49480
O1113       O  0.83809857  0.42040763  0.83219647    -1.82870
O1114       O  0.86436559  0.49179155  0.87328119    -0.73500
O1115       O  0.76486742  0.38435805  0.88965860    -0.73320
O1116       O  0.80955750  0.43561717  0.73760383    -0.72840
O1117       O  0.83622752  0.45438559  0.92724525    -0.73520
O1118       O  0.85781307  0.47720580  0.76038410    -0.73120
O1119       O  0.75496938  0.38044237  0.81475762    -0.73700
O1120       O  0.85177038  0.37326415  0.77129763    -0.73090
O1121       O  0.83450266  0.38499168  0.92928069    -0.73850
O1122       O  0.80377605  0.36673130  0.74833401    -0.73240
O1123       O  0.86710543  0.37984703  0.87874229    -0.73710
O1124       O  0.91774153  0.43684109  0.81596568    -0.73610
O1125       O  0.91770790  0.48314778  0.82201451    -0.73400
C1126       C  0.85375195  0.48413453  0.91407133     0.78390
C1127       C  0.74439704  0.37462696  0.85599646     0.78880
C1128       C  0.83531056  0.46322441  0.73032564     0.77840
C1129       C  0.82655629  0.35980046  0.74549308     0.78210
C1130       C  0.85409218  0.37488351  0.91807816     0.79350
C1131       C  0.93353315  0.46796386  0.81880682     0.78400
C1132       C  0.84852282  0.30288047  0.68937078     0.04380
C1133       C  0.83630681  0.30010443  0.64542405    -0.11770
C1134       C  0.81736636  0.31418681  0.63413270     0.01880
C1135       C  0.81115176  0.33194159  0.66781543    -0.10290
C1136       C  0.82490245  0.33576007  0.71197144     0.04370
C1137       C  0.84219347  0.31974319  0.72273355    -0.09710
H1138       H  0.84211557  0.28715279  0.61985656     0.09970
H1139       H  0.79701300  0.34354883  0.65927272     0.07500
H1140       H  0.85372269  0.32308730  0.75599435     0.07350
C1141       C  0.84217958  0.47758470  0.68395929     0.04380
C1142       C  0.81756936  0.47378441  0.65297478    -0.11770
C1143       C  0.82649189  0.48714376  0.60839524     0.01880
C1144       C  0.85887682  0.00043940  0.59397626    -0.10290
C1145       C  0.88343567  0.00743280  0.62576597     0.04370
C1146       C  0.87511410  0.49518500  0.67011962    -0.09710
H1147       H  0.79226800  0.46220999  0.66416021     0.09970
H1148       H  0.86589680  0.01049107  0.55973319     0.07500
H1149       H  0.89458484  0.00083859  0.69451634     0.07350
C1150       C  0.85871592  0.35291714  0.94819235     0.04380
C1151       C  0.87321976  0.36179833  0.99194965    -0.11770
C1152       C  0.87345283  0.33752624  0.01987128     0.01880
C1153       C  0.85921525  0.30529686  0.00388542    -0.10290
C1154       C  0.84229528  0.29650591  0.96261700     0.04370
C1155       C  0.84512082  0.32071120  0.93289510    -0.09710
H1156       H  0.88330692  0.38665464  0.00428167     0.09970
H1157       H  0.85684967  0.28599952  0.02659147     0.07500
H1158       H  0.83125166  0.31349657  0.90113913     0.07350
Zn1159     Zn  0.52689984  0.26845643  0.43983906     1.49720
Zn1160     Zn  0.54227190  0.27310698  0.54521401     1.49360
Zn1161     Zn  0.97635770  0.27295072  0.51145827     1.49110
Zn1162     Zn  0.97608321  0.20883437  0.50602780     1.49480
O1163       O  0.00550068  0.25585424  0.50005500    -1.82870
O1164       O  0.57849918  0.29352508  0.44278829    -0.73500
O1165       O  0.53646228  0.29820666  0.59564021    -0.73320
O1166       O  0.98205333  0.30396944  0.46044680    -0.72840
O1167       O  0.58770047  0.29856598  0.51766212    -0.73520
O1168       O  0.51082998  0.29487901  0.40756604    -0.73120
O1169       O  0.98803765  0.29192614  0.57508316    -0.73700
O1170       O  0.92642959  0.19252382  0.51578912    -0.73090
O1171       O  0.54177887  0.23663047  0.58021691    -0.73850
O1172       O  0.92647095  0.23918008  0.51278476    -0.73240
O1173       O  0.99455854  0.19397598  0.55693147    -0.73710
O1174       O  0.97866833  0.18805875  0.44783893    -0.73610
O1175       O  0.51168000  0.22877434  0.40099960    -0.73400
C1176       C  0.59838423  0.30353688  0.47675807     0.78390
C1177       C  0.51072897  0.29932007  0.60469511     0.78880
C1178       C  0.99409167  0.30781390  0.42022678     0.77840
C1179       C  0.91060930  0.20797180  0.51555802     0.78210
C1180       C  0.52027343  0.20647892  0.58208809     0.79350
C1181       C  0.99301136  0.19849157  0.40944084     0.78400
Zn1182     Zn  0.94317361  0.31004859  0.17894602     1.49720
Zn1183     Zn  0.94769314  0.37265688  0.12403027     1.49360
Zn1184     Zn  0.87860599  0.30997058  0.15927332     1.49110
Zn1185     Zn  0.93063719  0.36641978  0.22361698     1.49480
O1186       O  0.92489085  0.33926627  0.17165279    -1.82870
O1187       O  0.96495174  0.31376032  0.11687240    -0.73500
O1188       O  0.91614809  0.36618038  0.07325427    -0.73320
O1189       O  0.86346910  0.26115710  0.15756989    -0.72840
O1190       O  0.98013379  0.36432358  0.09304388    -0.73520
O1191       O  0.90751631  0.26072784  0.18243891    -0.73120
O1192       O  0.86996026  0.32198873  0.09697651    -0.73700
O1193       O  0.88970746  0.34622490  0.26047874    -0.73090
O1194       O  0.97122912  0.42049761  0.14403460    -0.73850
O1195       O  0.85190853  0.31224951  0.21102362    -0.73240
O1196       O  0.95006600  0.41662908  0.21279222    -0.73710
O1197       O  0.96075821  0.36164910  0.26263046    -0.73610
O1198       O  0.97137681  0.32304550  0.23871548    -0.73400
C1199       C  0.97705004  0.33631883  0.08640002     0.78390
C1200       C  0.88679790  0.34332552  0.06643027     0.78880
C1201       C  0.87737508  0.24528936  0.17017026     0.77840
C1202       C  0.86021432  0.32544406  0.25044399     0.78210
C1203       C  0.96805105  0.43412975  0.17964800     0.79350
C1204       C  0.97441710  0.34462077  0.26805170     0.78400
C1205       C  0.80176752  0.34491156  0.30202041     0.04380
C1206       C  0.79638036  0.33108530  0.34512464    -0.11770
C1207       C  0.81020906  0.31223442  0.35810845     0.01880
C1208       C  0.83075920  0.30809868  0.32693691    -0.10290
C1209       C  0.83481951  0.32149966  0.28223567     0.04370
C1210       C  0.81899265  0.33842975  0.26966764    -0.09710
H1211       H  0.78284578  0.33684587  0.36989714     0.09970
H1212       H  0.84275357  0.29455668  0.33670775     0.07500
H1213       H  0.82446711  0.35112008  0.23697925     0.07350
C1214       C  0.99164534  0.33058524  0.38889291     0.04380
C1215       C  0.98659997  0.32459014  0.34142095    -0.11770
C1216       C  0.99166861  0.35032559  0.31204813     0.01880
C1217       C  0.00588156  0.38219944  0.32990591    -0.10290
C1218       C  0.51011065  0.38778956  0.37706708     0.04370
C1219       C  0.49974403  0.36115654  0.40646597    -0.09710
H1220       H  0.97740890  0.30008473  0.32813241     0.09970
H1221       H  0.51299986  0.40261872  0.30668244     0.07500
H1222       H  0.50278392  0.36529418  0.44308871     0.07350
Zn1223     Zn  0.73624485  0.03530834  0.51431288     1.49720
Zn1224     Zn  0.73166365  0.48013594  0.44678361     1.49360
Zn1225     Zn  0.79964619  0.03317440  0.49812558     1.49110
Zn1226     Zn  0.73547627  0.46869168  0.54925929     1.49480
O1227       O  0.75142250  0.00457985  0.50248809    -1.82870
O1228       O  0.70999760  0.03648622  0.46125735    -0.73500
O1229       O  0.76760096  0.49292430  0.40482283    -0.73320
O1230       O  0.81699400  0.08348955  0.50961203    -0.72840
O1231       O  0.70565294  0.49692193  0.41533055    -0.73520
O1232       O  0.77115178  0.08383422  0.52362635    -0.73120
O1233       O  0.81596715  0.02981337  0.43345745    -0.73700
O1234       O  0.77336348  0.47387070  0.58480478    -0.73090
O1235       O  0.70693751  0.42891633  0.45094511    -0.73850
O1236       O  0.81612218  0.01376022  0.54692160    -0.73240
O1237       O  0.71443793  0.42168341  0.52373999    -0.73710
O1238       O  0.70337334  0.47095028  0.59326250    -0.73610
O1239       O  0.70663144  0.01710543  0.56793259    -0.73400
C1240       C  0.70027756  0.02014536  0.42436454     0.78390
C1241       C  0.79832932  0.01148685  0.40075392     0.78880
C1242       C  0.80221971  0.09944082  0.51845754     0.77840
C1243       C  0.80402162  0.49166392  0.57832516     0.78210
C1244       C  0.70391199  0.40986212  0.48410027     0.79350
C1245       C  0.69480409  0.49256656  0.59512596     0.78400
Zn1246     Zn  0.53940935  0.14110571  0.82988656     1.49720
Zn1247     Zn  0.60435480  0.14326892  0.83471481     1.49360
Zn1248     Zn  0.60397123  0.20827582  0.79371410     1.49110
Zn1249     Zn  0.59531267  0.19473553  0.89900723     1.49480
O1250       O  0.58592642  0.17207531  0.84012278    -1.82870
O1251       O  0.52491750  0.09160425  0.82835527    -0.73500
O1252       O  0.62721598  0.15482992  0.77383170    -0.73320
O1253       O  0.56883942  0.20213247  0.74802936    -0.72840
O1254       O  0.57211638  0.09287684  0.83205086    -0.73520
O1255       O  0.53000580  0.15154693  0.76720389    -0.73120
O1256       O  0.63370155  0.20280370  0.75058545    -0.73700
O1257       O  0.62322411  0.24691612  0.89433762    -0.73090
O1258       O  0.63261264  0.15057099  0.88976241    -0.73850
O1259       O  0.62914315  0.25539835  0.81938669    -0.73240
O1260       O  0.61951309  0.17887754  0.93823394    -0.73710
O1261       O  0.55211369  0.17900287  0.93045381    -0.73610
O1262       O  0.51352595  0.14632681  0.88038364    -0.73400
C1263       C  0.54091581  0.07637905  0.82913987     0.78390
C1264       C  0.63597040  0.17744615  0.74378770     0.78880
C1265       C  0.54299247  0.17514294  0.73849738     0.77840
C1266       C  0.63478164  0.26667132  0.86012557     0.78210
C1267       C  0.63400175  0.16294358  0.92912312     0.79350
C1268       C  0.52214760  0.16048730  0.91922268     0.78400
C1269       C  0.62947727  0.12956313  0.63872655     0.04380
C1270       C  0.64476938  0.15397027  0.60599039    -0.11770
C1271       C  0.66389660  0.18664019  0.61946927     0.01880
C1272       C  0.66168758  0.19562487  0.66484127    -0.10290
C1273       C  0.64295677  0.17084766  0.69716714     0.04370
C1274       C  0.62755652  0.13795163  0.68368250    -0.09710
H1275       H  0.64679764  0.14686225  0.57136274     0.09970
H1276       H  0.67563239  0.22102975  0.67539008     0.07500
H1277       H  0.61528207  0.11851661  0.70870362     0.07350
C1278       C  0.53013379  0.16855325  0.69110687     0.04380
C1279       C  0.51290861  0.13568120  0.67682922    -0.11770
C1280       C  0.00301075  0.12769878  0.63150181     0.01880
C1281       C  0.01170797  0.15238983  0.59941725    -0.10290
C1282       C  0.52462492  0.18468734  0.61360678     0.04370
C1283       C  0.53570860  0.19340960  0.65920377    -0.09710
H1284       H  0.00585044  0.11596911  0.70130813     0.09970
H1285       H  0.00307800  0.14564015  0.56446697     0.07500
H1286       H  0.54677991  0.21866252  0.67019602     0.07350
Zn1287     Zn  0.70145299  0.10180098  0.12387608     1.49720
Zn1288     Zn  0.70411644  0.10319281  0.22279825     1.49360
Zn1289     Zn  0.64196182  0.10658422  0.17240503     1.49110
Zn1290     Zn  0.64067804  0.03910127  0.17393816     1.49480
O1291       O  0.67113264  0.08734782  0.17348194    -1.82870
O1292       O  0.75203837  0.12861833  0.13330126    -0.73500
O1293       O  0.69414896  0.13012662  0.26398097    -0.73320
O1294       O  0.64981911  0.13402118  0.11281847    -0.72840
O1295       O  0.75398772  0.12898204  0.20844853    -0.73520
O1296       O  0.68891294  0.12602364  0.08407283    -0.73120
O1297       O  0.64995201  0.12949833  0.23437491    -0.73700
O1298       O  0.59139489  0.02516209  0.17272174    -0.73090
O1299       O  0.69449036  0.06558522  0.26333905    -0.73850
O1300       O  0.59222490  0.07236506  0.17315830    -0.73240
O1301       O  0.64687107  0.02459076  0.23701980    -0.73710
O1302       O  0.64915509  0.01774984  0.11732061    -0.73610
O1303       O  0.69090159  0.06349856  0.08886415    -0.73400
C1304       C  0.76878949  0.13704212  0.17008772     0.78390
C1305       C  0.67030548  0.13538636  0.26712143     0.78880
C1306       C  0.66973012  0.13740509  0.08068670     0.77840
C1307       C  0.57606059  0.04107152  0.17346027     0.78210
C1308       C  0.66850643  0.03794947  0.26851247     0.79350
C1309       C  0.67092260  0.03297979  0.08654182     0.78400
C1310       C  0.62343832  0.12371168  0.37545042     0.04380
C1311       C  0.64909489  0.13720637  0.40693942    -0.11770
C1312       C  0.68060205  0.15911160  0.39161966     0.01880
C1313       C  0.68809621  0.16087048  0.34480282    -0.10290
C1314       C  0.66300086  0.14230374  0.31322335     0.04370
C1315       C  0.63049549  0.12495044  0.32862918    -0.09710
H1316       H  0.64344832  0.13674445  0.44303952     0.09970
H1317       H  0.71302911  0.17674829  0.33308858     0.07500
H1318       H  0.61066818  0.11324462  0.30407369     0.07350
C1319       C  0.67955655  0.02583305  0.39313710     0.04380
C1320       C  0.64909739  0.51908757  0.40951336    -0.11770
C1321       C  0.62269830  0.50765148  0.37922666     0.01880
C1322       C  0.62893922  0.01175420  0.33192839    -0.10290
C1323       C  0.66100568  0.02463071  0.31526851     0.04370
C1324       C  0.68611127  0.02993270  0.34601186    -0.09710
H1325       H  0.64445538  0.51615445  0.44606034     0.09970
H1326       H  0.60886476  0.50435567  0.30800936     0.07500
H1327       H  0.71044530  0.03711946  0.33346606     0.07350
C1328       C  0.65724877  0.16344686  0.96240007     0.04380
C1329       C  0.64874540  0.15062108  0.00745377    -0.11770
C1330       C  0.67406037  0.15605823  0.03834812     0.01880
C1331       C  0.70665909  0.17546192  0.02446003    -0.10290
C1332       C  0.71447254  0.18763428  0.98030644     0.04370
C1333       C  0.69000442  0.18097696  0.94893898    -0.09710
H1334       H  0.62324955  0.13585635  0.01742779     0.09970
H1335       H  0.72646525  0.18140460  0.04849809     0.07500
H1336       H  0.69659316  0.19229638  0.91532507     0.07350
Zn1337     Zn  0.53948673  0.40152577  0.83496034     1.49720
Zn1338     Zn  0.60411249  0.46519655  0.84042356     1.49360
Zn1339     Zn  0.59506706  0.40346682  0.90330958     1.49110
Zn1340     Zn  0.60569324  0.40188481  0.79820416     1.49480
O1341       O  0.58619264  0.41799022  0.84456486    -1.82870
O1342       O  0.52505940  0.43612535  0.82376734    -0.73500
O1343       O  0.62973273  0.48496551  0.89738357    -0.73320
O1344       O  0.55282721  0.37699163  0.93697912    -0.72840
O1345       O  0.57136469  0.48208881  0.83631962    -0.73520
O1346       O  0.51487655  0.37672022  0.89105726    -0.73120
O1347       O  0.61962005  0.44282840  0.94306927    -0.73700
O1348       O  0.63397736  0.38373786  0.82362061    -0.73090
O1349       O  0.63009664  0.47990239  0.78170072    -0.73850
O1350       O  0.62155190  0.37820468  0.89751799    -0.73240
O1351       O  0.63130911  0.43686975  0.75235885    -0.73710
O1352       O  0.56961928  0.36588626  0.76112190    -0.73610
O1353       O  0.52615720  0.36928708  0.78348060    -0.73400
C1354       C  0.54067113  0.46730908  0.82818572     0.78390
C1355       C  0.63221664  0.47337899  0.93569049     0.78880
C1356       C  0.52328659  0.36915425  0.92849117     0.77840
C1357       C  0.63619289  0.37394800  0.86344129     0.78210
C1358       C  0.63722638  0.46621129  0.74950008     0.79350
C1359       C  0.53923519  0.35659754  0.75869877     0.78400
C1360       C  0.96136140  0.29107761  0.70825436     0.04380
C1361       C  0.97128952  0.28511225  0.66652764    -0.11770
C1362       C  0.50391330  0.30389452  0.65240618     0.01880
C1363       C  0.52771957  0.32587098  0.68355153    -0.10290
C1364       C  0.51767263  0.32989519  0.72754657     0.04370
C1365       C  0.98460202  0.31121772  0.74000872    -0.09710
H1366       H  0.95248559  0.26929938  0.64231594     0.09970
H1367       H  0.55299932  0.34102162  0.67278323     0.07500
H1368       H  0.97610965  0.31607656  0.77193590     0.07350
C1369       C  0.63729128  0.01436413  0.64831360     0.04380
C1370       C  0.65288919  0.00585347  0.61557636    -0.11770
C1371       C  0.67001127  0.49004692  0.62807520     0.01880
C1372       C  0.66585703  0.47678642  0.67254093    -0.10290
C1373       C  0.64729456  0.48293050  0.70499715     0.04370
C1374       C  0.63429956  0.00287419  0.69284180    -0.09710
H1375       H  0.65508655  0.01542019  0.58114710     0.09970
H1376       H  0.67761035  0.46297157  0.68216474     0.07500
H1377       H  0.62178787  0.00958131  0.71793864     0.07350
C1378       C  0.95800360  0.29113022  0.97456750     0.04380
C1379       C  0.96128663  0.29679833  0.02204361    -0.11770
C1380       C  0.98176230  0.32855162  0.03911535     0.01880
C1381       C  0.00165973  0.35369908  0.00824503    -0.10290
C1382       C  0.49787143  0.34782695  0.96094732     0.04370
C1383       C  0.47311728  0.31779292  0.94468448    -0.09710
H1384       H  0.94839966  0.27654301  0.04562870     0.09970
H1385       H  0.01960182  0.37775334  0.02080791     0.07500
H1386       H  0.47036099  0.31353003  0.90804563     0.07350
C1387       C  0.71318672  0.02891454  0.98347724     0.04380
C1388       C  0.68764518  0.51288632  0.95299256    -0.11770
C1389       C  0.65557735  0.49597447  0.96872252     0.01880
C1390       C  0.64841960  0.99831717  0.01509740    -0.10290
C1391       C  0.67461815  0.01750854  0.04518478     0.04370
C1392       C  0.70693360  0.03074920  0.02939978    -0.09710
H1393       H  0.69312521  0.51037692  0.91762263     0.09970
H1394       H  0.62321575  0.98707287  0.02663513     0.07500
H1395       H  0.72743908  0.04381967  0.05267798     0.07350
C1396       C  0.98668923  0.02304061  0.18120872     0.04380
C1397       C  0.96953317  0.48849871  0.18486099    -0.11770
C1398       C  0.98630244  0.47078524  0.18204778     0.01880
C1399       C  0.52085311  0.48821409  0.17753071    -0.10290
C1400       C  0.53895811  0.02288342  0.17579947     0.04370
C1401       C  0.52129287  0.03988709  0.17677434    -0.09710
H1402       H  0.94298591  0.47532099  0.18715775     0.09970
H1403       H  0.53362955  0.47455122  0.17550297     0.07500
H1404       H  0.53442102  0.06636858  0.17408281     0.07350
C1405       C  0.82059328  0.18933623  0.51906283     0.04380
C1406       C  0.85542429  0.20631409  0.51746983    -0.11770
C1407       C  0.87339480  0.18946255  0.51796273     0.01880
C1408       C  0.85561071  0.15469315  0.51932848    -0.10290
C1409       C  0.82088621  0.13669505  0.52071711     0.04370
C1410       C  0.80388553  0.15452178  0.52123161    -0.09710
H1411       H  0.86861644  0.23282045  0.51564163     0.09970
H1412       H  0.86888084  0.14149583  0.51873062     0.07500
H1413       H  0.77730263  0.14112117  0.52161772     0.07350
C1414       C  0.68666296  0.32073733  0.47627866     0.04380
C1415       C  0.65213168  0.30410962  0.47109917    -0.11770
C1416       C  0.63471985  0.32134313  0.47006266     0.01880
C1417       C  0.65235747  0.35583755  0.47215315    -0.10290
C1418       C  0.68671955  0.37334698  0.47732843     0.04370
C1419       C  0.70359415  0.35548596  0.48040949    -0.09710
H1420       H  0.63855386  0.27755360  0.47090661     0.09970
H1421       H  0.63904882  0.36903001  0.47262189     0.07500
H1422       H  0.72986812  0.36861729  0.48610132     0.07350
C1423       C  0.52281738  0.48647440  0.82488090     0.04380
C1424       C  0.98824151  0.46970859  0.82082073    -0.11770
C1425       C  0.97054439  0.48659480  0.81993794     0.01880
C1426       C  0.98825048  0.02125278  0.82254757    -0.10290
C1427       C  0.52289757  0.03919100  0.82631807     0.04370
C1428       C  0.53981737  0.02132107  0.82748511    -0.09710
H1429       H  0.97489208  0.44318870  0.81939342     0.09970
H1430       H  0.97488905  0.03436074  0.82203427     0.07500
H1431       H  0.56629754  0.03457047  0.83070168     0.07350
C1432       C  0.65502235  0.35610532  0.86875544     0.04380
C1433       C  0.68979670  0.37305622  0.86566988    -0.11770
C1434       C  0.70751688  0.35607072  0.86399489     0.01880
C1435       C  0.68927813  0.32114756  0.86389512    -0.10290
C1436       C  0.65438317  0.30345407  0.86682405     0.04370
C1437       C  0.63784554  0.32143207  0.86974683    -0.09710
H1438       H  0.70304244  0.39954644  0.86312162     0.09970
H1439       H  0.70218726  0.30772513  0.86003075     0.07500
H1440       H  0.61124255  0.30830709  0.87000888     0.07350
C1441       C  0.85828983  0.15626257  0.16700380     0.04380
C1442       C  0.87517766  0.19079013  0.16906667    -0.11770
C1443       C  0.85831504  0.20840109  0.16981520     0.01880
C1444       C  0.82344742  0.19058924  0.16939248    -0.10290
C1445       C  0.80572017  0.15588443  0.16839373     0.04370
C1446       C  0.82348335  0.13909347  0.16669668    -0.09710
H1447       H  0.90177044  0.20415720  0.16906348     0.09970
H1448       H  0.81005630  0.20366665  0.17037764     0.07500
H1449       H  0.81009016  0.11255349  0.16571742     0.07350
C1450       C  0.60218715  0.04016595  0.64683437     0.24850
C1451       C  0.63231529  0.04184496  0.63858219    -0.23260
C1452       C  0.65975257  0.07145892  0.62496741     0.19760
C1453       C  0.65753131  0.09933618  0.62095516     0.24790
C1454       C  0.62786093  0.09827834  0.63093073    -0.23200
C1455       C  0.59995115  0.06848540  0.64301783     0.19690
F1456       F  0.57135989  0.06736918  0.65355658    -0.13160
F1457       F  0.57560781  0.01160875  0.66030413    -0.15520
F1458       F  0.68552128  0.12814269  0.61233284    -0.15530
F1459       F  0.68967291  0.07415466  0.61962664    -0.13160
C1460       C  0.56135724  0.47908247  0.37535608     0.24850
C1461       C  0.58998960  0.48229449  0.39525901    -0.23260
C1462       C  0.58790455  0.45609103  0.42123134     0.19760
C1463       C  0.55960778  0.42587144  0.42049788     0.24790
C1464       C  0.53267253  0.42111072  0.39395491    -0.23200
C1465       C  0.53264888  0.44848032  0.37478399     0.19690
F1466       F  0.50610789  0.44483808  0.35141360    -0.13160
F1467       F  0.56222112  0.50452312  0.35233959    -0.15520
F1468       F  0.56116331  0.40031097  0.43926189    -0.15530
F1469       F  0.61472884  0.45748247  0.44083009    -0.13160
C1470       C  0.80207678  0.23834603  0.94196716     0.24850
C1471       C  0.81000660  0.26759751  0.96447508    -0.23260
C1472       C  0.78622111  0.27058933  0.98946592     0.19760
C1473       C  0.75496923  0.24436051  0.99315472     0.24790
C1474       C  0.74705325  0.21476135  0.97210881    -0.23200
C1475       C  0.77024195  0.21160302  0.94587866     0.19690
F1476       F  0.76216228  0.18279297  0.92512790    -0.13160
F1477       F  0.82495252  0.23577905  0.91701136    -0.15520
F1478       F  0.73232060  0.24758691  0.01787713    -0.15530
F1479       F  0.79350919  0.29913807  0.01055102    -0.13160
C1480       C  0.94552492  0.09499853  0.60878543     0.24850
C1481       C  0.97459946  0.09570199  0.62146366    -0.23260
C1482       C  0.97436690  0.06639914  0.63079331     0.19760
C1483       C  0.94480153  0.03658852  0.62891347     0.24790
C1484       C  0.91563092  0.03630043  0.61790291    -0.23200
C1485       C  0.91643509  0.06571770  0.60705214     0.19690
F1486       F  0.88847144  0.06673176  0.59962354    -0.13160
F1487       F  0.94452146  0.12306162  0.60266321    -0.15520
F1488       F  0.94426096  0.00837732  0.64005786    -0.15530
F1489       F  0.00229054  0.06692391  0.64372815    -0.13160
C1490       C  0.87408129  0.27183632  0.72079252     0.24850
C1491       C  0.87628296  0.29827096  0.69577526    -0.23260
C1492       C  0.90610915  0.32230184  0.67734108     0.19760
C1493       C  0.93365112  0.31972640  0.68285256     0.24790
C1494       C  0.93163421  0.29288053  0.70655976    -0.23200
C1495       C  0.90201604  0.26899163  0.72598536     0.19690
F1496       F  0.90027325  0.24326002  0.74927849    -0.13160
F1497       F  0.84512886  0.24903260  0.73947798    -0.15520
F1498       F  0.96246621  0.34327422  0.66448795    -0.15530
F1499       F  0.90845786  0.34841636  0.65416264    -0.13160
C1500       C  0.78012478  0.51393928  0.95184031     0.24850
C1501       C  0.80764958  0.04577429  0.95362387    -0.23260
C1502       C  0.80365763  0.07293085  0.96109813     0.19760
C1503       C  0.77230926  0.06799260  0.96900013     0.24790
C1504       C  0.74542469  0.03598857  0.96933188    -0.23200
C1505       C  0.74931396  0.50918221  0.95963463     0.19690
F1506       F  0.72347549  0.47800467  0.96181427    -0.13160
F1507       F  0.78328718  0.48694323  0.94789955    -0.15520
F1508       F  0.76824355  0.09392434  0.97819428    -0.15530
F1509       F  0.83013142  0.10360521  0.96359718    -0.13160
C1510       C  0.47139064  0.22619123  0.92652545     0.24850
C1511       C  0.94833581  0.19891045  0.95191962    -0.23260
C1512       C  0.92212969  0.20005315  0.97316419     0.19760
C1513       C  0.92246881  0.22982400  0.97591016     0.24790
C1514       C  0.94882628  0.25832107  0.95700331    -0.23200
C1515       C  0.47169790  0.25552075  0.92914560     0.19690
F1516       F  0.49803757  0.28220345  0.91061993    -0.13160
F1517       F  0.49744545  0.22675646  0.90570865    -0.15520
F1518       F  0.89900376  0.23150821  0.00068466    -0.15530
F1519       F  0.89832923  0.17336823  0.99537558    -0.13160
C1520       C  0.82920137  0.43191787  0.32055235     0.24850
C1521       C  0.80364532  0.43428807  0.30009243    -0.23260
C1522       C  0.77799098  0.40774585  0.27727496     0.19760
C1523       C  0.77727508  0.37792442  0.27652910     0.24790
C1524       C  0.80229821  0.37546272  0.29849168    -0.23200
C1525       C  0.82858376  0.40255623  0.31963965     0.19690
F1526       F  0.85314591  0.40013927  0.34034788    -0.13160
F1527       F  0.85435424  0.45799350  0.34208618    -0.15520
F1528       F  0.75224815  0.35154848  0.25559354    -0.15530
F1529       F  0.75372243  0.41070177  0.25692074    -0.13160
C1530       C  0.56593068  0.15209947  0.40615793     0.24850
C1531       C  0.53774851  0.12893317  0.38282363    -0.23260
C1532       C  0.53521403  0.09944988  0.36788823     0.19760
C1533       C  0.56239233  0.09521487  0.37089834     0.24790
C1534       C  0.59197929  0.12047016  0.38884981    -0.23200
C1535       C  0.59276840  0.14790472  0.40929608     0.19690
F1536       F  0.62105983  0.17350101  0.42565979    -0.13160
F1537       F  0.56965386  0.18135639  0.41960749    -0.15520
F1538       F  0.56095280  0.06822681  0.35210219    -0.15530
F1539       F  0.50760961  0.07633463  0.34661582    -0.13160
Zn1540     Zn  0.87738735  0.57434191  0.15704161     1.49720
Zn1541     Zn  0.94282752  0.63944115  0.16980671     1.49360
Zn1542     Zn  0.93176007  0.57304070  0.22052796     1.49110
Zn1543     Zn  0.94417184  0.57798440  0.11885666     1.49480
O1544       O  0.92404872  0.59154016  0.16667511    -1.82870
O1545       O  0.86240486  0.60803808  0.15552107    -0.73500
O1546       O  0.97217310  0.65798607  0.22717992    -0.73320
O1547       O  0.89150541  0.55234290  0.25905943    -0.72840
O1548       O  0.90791458  0.65353224  0.17376374    -0.73520
O1549       O  0.85242701  0.54673880  0.21069280    -0.73120
O1550       O  0.96184996  0.61012309  0.25665842    -0.73700
O1551       O  0.96945472  0.55556552  0.14010117    -0.73090
O1552       O  0.96407761  0.65568368  0.10744888    -0.73850
O1553       O  0.95240597  0.54318574  0.21172900    -0.73240
O1554       O  0.97340761  0.61669534  0.08087552    -0.73710
O1555       O  0.91005998  0.54935779  0.07243299    -0.73610
O1556       O  0.86626438  0.55181825  0.09594178    -0.73400
C1557       C  0.87716613  0.63839246  0.16533357     0.78390
C1558       C  0.97553088  0.64107092  0.25872648     0.78880
C1559       C  0.86171175  0.54292538  0.25002521     0.77840
C1560       C  0.96852207  0.54145019  0.17771135     0.78210
C1561       C  0.97371161  0.64361969  0.07597111     0.79350
C1562       C  0.88128044  0.54456700  0.06588570     0.78400
C1563       C  0.51528491  0.63941654  0.36584550     0.04380
C1564       C  0.51029040  0.63978034  0.31890138    -0.11770
C1565       C  0.99382221  0.65516343  0.30112315     0.01880
C1566       C  0.98691169  0.67471098  0.33019496    -0.10290
C1567       C  0.99289802  0.67482894  0.37751586     0.04370
C1568       C  0.50452721  0.65515293  0.39514413    -0.09710
H1569       H  0.51789003  0.62673511  0.29605762     0.09970
H1570       H  0.97538617  0.68791731  0.31694258     0.07500
H1571       H  0.50907208  0.65533312  0.43160490     0.07350
C1572       C  0.80484995  0.96510946  0.30400665     0.04380
C1573       C  0.82208966  0.48854880  0.27128056    -0.11770
C1574       C  0.83704283  0.52148855  0.28269607     0.01880
C1575       C  0.83218603  0.53125437  0.32658794    -0.10290
C1576       C  0.81185996  0.50666972  0.35822259     0.04370
C1577       C  0.79929397  0.97384680  0.34668306    -0.09710
H1578       H  0.82770967  0.98110701  0.23895682     0.09970
H1579       H  0.84331217  0.55695233  0.33533313     0.07500
H1580       H  0.78594803  0.95471382  0.37188325     0.07350
C1581       C  0.95779652  0.67486686  0.96655143     0.04380
C1582       C  0.96005337  0.67011715  0.01358458    -0.11770
C1583       C  0.97947914  0.65741021  0.02947008     0.01880
C1584       C  0.99918592  0.65247280  0.99817164    -0.10290
C1585       C  0.49692899  0.65736838  0.95120581     0.04370
C1586       C  0.47360841  0.66491889  0.93547325    -0.09710
H1587       H  0.94707455  0.67672616  0.03796966     0.09970
H1588       H  0.01590210  0.64460932  0.01014212     0.07110
H1589       H  0.47187837  0.66836545  0.89908259     0.07350
C1590       C  0.83938929  0.54811149  0.95923489     0.04380
C1591       C  0.85138698  0.55272766  0.00373764    -0.11770
C1592       C  0.86714433  0.53616007  0.01959369     0.01880
C1593       C  0.86991333  0.51395280  0.99019088    -0.10290
C1594       C  0.85880732  0.01081359  0.94452467     0.04370
C1595       C  0.84729282  0.03093105  0.92825154    -0.09710
H1596       H  0.84589011  0.56713085  0.02716068     0.09970
H1597       H  0.87992526  0.49916561  0.00263459     0.07500
H1598       H  0.83707462  0.02705516  0.89396272     0.07350
Zn1599     Zn  0.73523972  0.77336978  0.54520173     1.49720
Zn1600     Zn  0.73004562  0.75683749  0.44611173     1.49360
Zn1601     Zn  0.79891938  0.77138974  0.49733269     1.49110
Zn1602     Zn  0.73583695  0.70641172  0.51372612     1.49480
O1603       O  0.75081813  0.75237439  0.50056435    -1.82870
O1604       O  0.71866040  0.80352920  0.52023322    -0.73500
O1605       O  0.76642836  0.78100264  0.40503395    -0.73320
O1606       O  0.81449427  0.79893088  0.55607315    -0.72840
O1607       O  0.70357478  0.78213605  0.45123530    -0.73520
O1608       O  0.77101694  0.79817285  0.58867364    -0.73120
O1609       O  0.81542322  0.79481335  0.43434486    -0.73700
O1610       O  0.77093254  0.69276123  0.52580402    -0.73090
O1611       O  0.70520325  0.71389717  0.41441673    -0.73850
O1612       O  0.81558938  0.73752273  0.50305469    -0.73240
O1613       O  0.71129317  0.67918367  0.45945558    -0.73710
O1614       O  0.70376387  0.69481399  0.56494465    -0.73610
O1615       O  0.69901004  0.73817970  0.58366993    -0.73400
C1616       C  0.70409922  0.80140787  0.48254247     0.78390
C1617       C  0.79733909  0.79444838  0.40132187     0.78880
C1618       C  0.80068278  0.80496941  0.58966049     0.77840
C1619       C  0.80152932  0.70756963  0.51619832     0.78210
C1620       C  0.70111568  0.68562712  0.42280111     0.79350
C1621       C  0.69042406  0.70806303  0.58801695     0.78400
Zn1622     Zn  0.86829401  0.96683782  0.82213114     1.49720
Zn1623     Zn  0.81765634  0.91071661  0.89343433     1.49360
Zn1624     Zn  0.80160242  0.90159432  0.78618486     1.49110
Zn1625     Zn  0.86836404  0.90415132  0.82353192     1.49480
O1626       O  0.83809969  0.92040739  0.83219517    -1.82870
O1627       O  0.86436626  0.99179437  0.87327025    -0.73500
O1628       O  0.76486925  0.88436106  0.88965980    -0.73320
O1629       O  0.80955544  0.93560947  0.73759909    -0.72840
O1630       O  0.83623180  0.95439128  0.92723932    -0.73520
O1631       O  0.85781264  0.97719885  0.76037296    -0.73120
O1632       O  0.75496989  0.88043948  0.81475905    -0.73700
O1633       O  0.85177144  0.87326138  0.77130050    -0.73090
O1634       O  0.83450493  0.88499593  0.92928265    -0.73850
O1635       O  0.80377565  0.86672628  0.74833964    -0.73240
O1636       O  0.86710651  0.87984861  0.87874500    -0.73710
O1637       O  0.91774301  0.93684050  0.81596618    -0.73610
O1638       O  0.91770889  0.98314726  0.82200903    -0.73400
C1639       C  0.85375505  0.98413958  0.91406191     0.78390
C1640       C  0.74439823  0.87462690  0.85599823     0.78880
C1641       C  0.83530917  0.96321520  0.73031617     0.77840
C1642       C  0.82655623  0.85979606  0.74549813     0.78210
C1643       C  0.85409370  0.87488663  0.91808100     0.79350
C1644       C  0.93353446  0.96796342  0.81880465     0.78400
C1645       C  0.84851996  0.80287357  0.68937740     0.04380
C1646       C  0.83630395  0.80009780  0.64543061    -0.11770
C1647       C  0.81736488  0.81418171  0.63413894     0.01880
C1648       C  0.81115096  0.83193688  0.66782158    -0.10290
C1649       C  0.82490127  0.83575471  0.71197764     0.04370
C1650       C  0.84219131  0.81973693  0.72274008    -0.09710
H1651       H  0.84211243  0.78714604  0.61986295     0.09970
H1652       H  0.79701341  0.84354534  0.65927857     0.07500
H1653       H  0.85372076  0.82308131  0.75600077     0.07350
C1654       C  0.84217755  0.97757079  0.68394695     0.04380
C1655       C  0.81756759  0.97377361  0.65296426    -0.11770
C1656       C  0.82648997  0.98713227  0.60838422     0.01880
C1657       C  0.85887974  0.50045521  0.59398980    -0.10290
C1658       C  0.88343847  0.50745006  0.62578031     0.04370
C1659       C  0.87511157  0.99516660  0.67010469    -0.09710
H1660       H  0.79226689  0.96220336  0.66415209     0.09970
H1661       H  0.86589961  0.51050517  0.55974583     0.07500
H1662       H  0.89458717  0.50085830  0.69453228     0.07350
C1663       C  0.85871630  0.85291986  0.94819587     0.04380
C1664       C  0.87321959  0.86180050  0.99195353    -0.11770
C1665       C  0.87345134  0.83752775  0.01987528     0.01880
C1666       C  0.85921286  0.80529836  0.00388928    -0.10290
C1667       C  0.84229388  0.79650819  0.96262014     0.04370
C1668       C  0.84512072  0.82071396  0.93289828    -0.09710
H1669       H  0.88330753  0.88665689  0.00428558     0.09970
H1670       H  0.85684632  0.78600058  0.02659524     0.07500
H1671       H  0.83125217  0.81349983  0.90114177     0.07350
Zn1672     Zn  0.52690057  0.76845535  0.43983880     1.49720
Zn1673     Zn  0.54227387  0.77310815  0.54521283     1.49360
Zn1674     Zn  0.97635891  0.77294972  0.51145839     1.49110
Zn1675     Zn  0.97608532  0.70883340  0.50603007     1.49480
O1676       O  0.00550208  0.75585353  0.50005518    -1.82870
O1677       O  0.57849998  0.79352292  0.44278677    -0.73500
O1678       O  0.53646304  0.79820604  0.59564053    -0.73320
O1679       O  0.98205420  0.80396817  0.46044669    -0.72840
O1680       O  0.58770198  0.79856862  0.51766029    -0.73520
O1681       O  0.51083119  0.79487844  0.40756598    -0.73120
O1682       O  0.98803864  0.79192567  0.57508320    -0.73700
O1683       O  0.92643116  0.69252255  0.51579514    -0.73090
O1684       O  0.54178432  0.73663256  0.58021270    -0.73850
O1685       O  0.92647239  0.73917868  0.51278495    -0.73240
O1686       O  0.99456566  0.69397582  0.55692966    -0.73710
O1687       O  0.97866804  0.68805778  0.44783947    -0.73610
O1688       O  0.51167951  0.72877318  0.40099963    -0.73400
C1689       C  0.59838537  0.80353699  0.47675614     0.78390
C1690       C  0.51072988  0.79931983  0.60469512     0.78880
C1691       C  0.99409282  0.80781301  0.42022680     0.77840
C1692       C  0.91061074  0.70797054  0.51556129     0.78210
C1693       C  0.52028082  0.70648042  0.58208401     0.79350
C1694       C  0.99301044  0.69849040  0.40944090     0.78400
Zn1695     Zn  0.94317433  0.81004893  0.17894671     1.49720
Zn1696     Zn  0.94769312  0.87265719  0.12403158     1.49360
Zn1697     Zn  0.87860642  0.80997084  0.15927582     1.49110
Zn1698     Zn  0.93063858  0.86642032  0.22361817     1.49480
O1699       O  0.92489148  0.83926655  0.17165413    -1.82870
O1700       O  0.96495217  0.81376071  0.11687279    -0.73500
O1701       O  0.91614729  0.86618127  0.07325729    -0.73320
O1702       O  0.86346975  0.76115745  0.15757118    -0.72840
O1703       O  0.98013264  0.86432339  0.09304300    -0.73520
O1704       O  0.90751712  0.76072820  0.18243948    -0.73120
O1705       O  0.86995972  0.82198958  0.09698007    -0.73700
O1706       O  0.88970951  0.84622543  0.26048081    -0.73090
O1707       O  0.97122945  0.92049792  0.14403560    -0.73850
O1708       O  0.85190957  0.81224934  0.21102737    -0.73240
O1709       O  0.95006649  0.91662949  0.21279326    -0.73710
O1710       O  0.96075999  0.86164983  0.26263105    -0.73610
O1711       O  0.97137760  0.82304554  0.23871613    -0.73400
C1712       C  0.97704967  0.83631888  0.08639987     0.78390
C1713       C  0.88679696  0.84332661  0.06643388     0.78880
C1714       C  0.87737585  0.74528972  0.17017104     0.77840
C1715       C  0.86021621  0.82544432  0.25044737     0.78210
C1716       C  0.96805126  0.93413011  0.17964883     0.79350
C1717       C  0.97441841  0.84462105  0.26805229     0.78400
C1718       C  0.80177432  0.84491632  0.30202838     0.04380
C1719       C  0.79638840  0.83109087  0.34513301    -0.11770
C1720       C  0.81021467  0.81223744  0.35811448     0.01880
C1721       C  0.83076221  0.80809932  0.32694095    -0.10290
C1722       C  0.83482231  0.82150072  0.28224007     0.04370
C1723       C  0.81899720  0.83843286  0.26967398    -0.09710
H1724       H  0.78285541  0.83685258  0.36990675     0.09970
H1725       H  0.84275480  0.79455529  0.33671008     0.07500
H1726       H  0.82447111  0.85112290  0.23698540     0.07350
C1727       C  0.99164656  0.83058455  0.38889324     0.04380
C1728       C  0.98660125  0.82458983  0.34142118    -0.11770
C1729       C  0.99166979  0.85032549  0.31204883     0.01880
C1730       C  0.00588253  0.88219916  0.32990720    -0.10290
C1731       C  0.51011117  0.88778886  0.37706827     0.04370
C1732       C  0.49974479  0.86115565  0.40646671    -0.09710
H1733       H  0.97741029  0.80008455  0.32813222     0.09970
H1734       H  0.51300045  0.90261864  0.30668399     0.07500
H1735       H  0.50278474  0.86529306  0.44308950     0.07350
Zn1736     Zn  0.73624364  0.53530870  0.51431374     1.49720
Zn1737     Zn  0.73166482  0.98013642  0.44678107     1.49360
Zn1738     Zn  0.79964476  0.53317468  0.49812716     1.49110
Zn1739     Zn  0.73547621  0.96869101  0.54925719     1.49480
O1740       O  0.75142140  0.50458004  0.50248997    -1.82870
O1741       O  0.70999850  0.53648766  0.46125586    -0.73500
O1742       O  0.76760175  0.99292660  0.40481916    -0.73320
O1743       O  0.81699273  0.58348937  0.50961131    -0.72840
O1744       O  0.70565305  0.99692196  0.41532983    -0.73520
O1745       O  0.77115129  0.58383454  0.52363012    -0.73120
O1746       O  0.81596621  0.52981174  0.43346091    -0.73700
O1747       O  0.77336320  0.97386622  0.58479780    -0.73090
O1748       O  0.70694029  0.92891663  0.45094102    -0.73850
O1749       O  0.81612124  0.51376446  0.54692658    -0.73240
O1750       O  0.71443558  0.92168295  0.52373763    -0.73710
O1751       O  0.70337691  0.97095170  0.59326567    -0.73610
O1752       O  0.70662655  0.51710372  0.56793000    -0.73400
C1753       C  0.70027820  0.52014604  0.42436367     0.78390
C1754       C  0.79832861  0.51148432  0.40075797     0.78880
C1755       C  0.80221914  0.59944082  0.51845933     0.77840
C1756       C  0.80402140  0.99165770  0.57831766     0.78210
C1757       C  0.70391243  0.90986208  0.48409695     0.79350
C1758       C  0.69480966  0.99256941  0.59513046     0.78400
Zn1759     Zn  0.53941053  0.64110632  0.82988304     1.49720
Zn1760     Zn  0.60435491  0.64326711  0.83471651     1.49360
Zn1761     Zn  0.60397588  0.70827527  0.79371430     1.49110
Zn1762     Zn  0.59531211  0.69473427  0.89900707     1.49480
O1763       O  0.58592760  0.67207454  0.84012246    -1.82870
O1764       O  0.52491743  0.59160460  0.82835253    -0.73500
O1765       O  0.62721659  0.65482625  0.77383362    -0.73320
O1766       O  0.56884658  0.70213316  0.74802584    -0.72840
O1767       O  0.57211542  0.59287564  0.83205335    -0.73520
O1768       O  0.53001043  0.65154811  0.76719824    -0.73120
O1769       O  0.63370752  0.70280238  0.75058903    -0.73700
O1770       O  0.62322333  0.74691496  0.89433821    -0.73090
O1771       O  0.63261188  0.65056914  0.88976500    -0.73850
O1772       O  0.62914763  0.75539761  0.81938766    -0.73240
O1773       O  0.61951216  0.67887649  0.93823482    -0.73710
O1774       O  0.55211236  0.67900065  0.93045207    -0.73610
O1775       O  0.51352569  0.64632745  0.88037870    -0.73400
C1776       C  0.54091497  0.57637867  0.82913990     0.78390
C1777       C  0.63597366  0.67744337  0.74379048     0.78880
C1778       C  0.54299957  0.67514416  0.73849199     0.77840
C1779       C  0.63478344  0.76667035  0.86012665     0.78210
C1780       C  0.63400075  0.66294228  0.92912521     0.79350
C1781       C  0.52214647  0.66048612  0.91921912     0.78400
C1782       C  0.62947844  0.62956155  0.63872650     0.04380
C1783       C  0.64477058  0.65396956  0.60599138    -0.11770
C1784       C  0.66389867  0.68663904  0.61947155     0.01880
C1785       C  0.66169079  0.69562280  0.66484444    -0.10290
C1786       C  0.64296027  0.67084506  0.69716982     0.04370
C1787       C  0.62755961  0.63794920  0.68368382    -0.09710
H1788       H  0.64679736  0.64686246  0.57136255     0.09970
H1789       H  0.67563597  0.72102749  0.67539406     0.07500
H1790       H  0.61528534  0.61851376  0.70870435     0.07350
C1791       C  0.53014397  0.66855508  0.69109987     0.04380
C1792       C  0.51292130  0.63568343  0.67682020    -0.11770
C1793       C  0.00302830  0.62770228  0.63148923     0.01880
C1794       C  0.01172786  0.65239457  0.59940564    -0.10290
C1795       C  0.52463665  0.68469027  0.61360002     0.04370
C1796       C  0.53571793  0.69341171  0.65919799    -0.09710
H1797       H  0.00586526  0.61597128  0.70129624     0.09970
H1798       H  0.00310043  0.64564618  0.56445416     0.07500
H1799       H  0.54678598  0.71866401  0.67019211     0.07350
Zn1800     Zn  0.70145386  0.60180269  0.12387671     1.49720
Zn1801     Zn  0.70411705  0.60319262  0.22279862     1.49360
Zn1802     Zn  0.64196216  0.60658423  0.17240694     1.49110
Zn1803     Zn  0.64067886  0.53910146  0.17393647     1.49480
O1804       O  0.67113327  0.58734814  0.17348233    -1.82870
O1805       O  0.75203924  0.62861967  0.13330202    -0.73500
O1806       O  0.69414936  0.63012574  0.26398264    -0.73320
O1807       O  0.64981877  0.63402163  0.11282130    -0.72840
O1808       O  0.75398836  0.62898196  0.20844926    -0.73520
O1809       O  0.68891384  0.62602621  0.08407518    -0.73120
O1810       O  0.64995274  0.62949822  0.23437683    -0.73700
O1811       O  0.59139549  0.52516198  0.17272104    -0.73090
O1812       O  0.69449112  0.56558447  0.26333772    -0.73850
O1813       O  0.59222538  0.57236486  0.17316042    -0.73240
O1814       O  0.64687221  0.52458993  0.23701743    -0.73710
O1815       O  0.64915578  0.51775157  0.11731657    -0.73610
O1816       O  0.69090224  0.56350125  0.08886233    -0.73400
C1817       C  0.76879025  0.63704269  0.17008857     0.78390
C1818       C  0.67030619  0.63538595  0.26712326     0.78880
C1819       C  0.66973031  0.63740684  0.08068966     0.77840
C1820       C  0.57606112  0.54107132  0.17346106     0.78210
C1821       C  0.66850739  0.53794848  0.26851042     0.79350
C1822       C  0.67092322  0.53298258  0.08653803     0.78400
C1823       C  0.62343918  0.62371332  0.37545186     0.04380
C1824       C  0.64909568  0.63720822  0.40694097    -0.11770
C1825       C  0.68060314  0.65911241  0.39162114     0.01880
C1826       C  0.68809736  0.66087043  0.34480443    -0.10290
C1827       C  0.66300189  0.64230381  0.31322507     0.04370
C1828       C  0.63049645  0.62495139  0.32863076    -0.09710
H1829       H  0.64344912  0.63674683  0.44304097     0.09970
H1830       H  0.71303040  0.67674751  0.33309019     0.07500
H1831       H  0.61066919  0.61324562  0.30407520     0.07350
C1832       C  0.67955726  0.52583327  0.39313543     0.04380
C1833       C  0.64909689  0.01908755  0.40951559    -0.11770
C1834       C  0.62269769  0.00765180  0.37922916     0.01880
C1835       C  0.62893996  0.51175312  0.33192590    -0.10290
C1836       C  0.66100648  0.52462952  0.31526634     0.04370
C1837       C  0.68611206  0.52993216  0.34601017    -0.09710
H1838       H  0.64445499  0.01615395  0.44606259     0.09970
H1839       H  0.60886393  0.00435701  0.30801207     0.07500
H1840       H  0.71044619  0.53711902  0.33346473     0.07350
C1841       C  0.65724788  0.66344651  0.96240264     0.04380
C1842       C  0.64874472  0.65062128  0.00745661    -0.11770
C1843       C  0.67405992  0.65606020  0.03835160     0.01880
C1844       C  0.70665855  0.67546518  0.02446391    -0.10290
C1845       C  0.71447172  0.68763649  0.98030979     0.04370
C1846       C  0.69000351  0.68097747  0.94894178    -0.09710
H1847       H  0.62324891  0.63585560  0.01743037     0.09970
H1848       H  0.72646478  0.68140908  0.04850235     0.07500
H1849       H  0.69659202  0.69229624  0.91532744     0.07350
Zn1850     Zn  0.53948829  0.90152573  0.83496099     1.49720
Zn1851     Zn  0.60411440  0.96519597  0.84042801     1.49360
Zn1852     Zn  0.59506694  0.90346423  0.90331103     1.49110
Zn1853     Zn  0.60569499  0.90188428  0.79820591     1.49480
O1854       O  0.58619395  0.91798940  0.84456670    -1.82870
O1855       O  0.52506171  0.93612591  0.82376749    -0.73500
O1856       O  0.62973334  0.98496315  0.89738980    -0.73320
O1857       O  0.55282670  0.87698954  0.93697940    -0.72840
O1858       O  0.57136686  0.98208914  0.83632169    -0.73520
O1859       O  0.51487710  0.87672016  0.89105747    -0.73120
O1860       O  0.61962008  0.94282442  0.94307237    -0.73700
O1861       O  0.63397852  0.88373675  0.82362298    -0.73090
O1862       O  0.63010177  0.97990276  0.78170797    -0.73850
O1863       O  0.62155139  0.87820188  0.89751979    -0.73240
O1864       O  0.63131283  0.93687026  0.75236267    -0.73710
O1865       O  0.56962120  0.86588643  0.76112198    -0.73610
O1866       O  0.52615915  0.86928724  0.78348097    -0.73400
C1867       C  0.54067341  0.96730961  0.82818647     0.78390
C1868       C  0.63221693  0.97337523  0.93569567     0.78880
C1869       C  0.52328645  0.86915336  0.92849127     0.77840
C1870       C  0.63619329  0.87394614  0.86344349     0.78210
C1871       C  0.63723198  0.96621254  0.74950658     0.79350
C1872       C  0.53923710  0.85659780  0.75869885     0.78400
C1873       C  0.96136268  0.79107733  0.70825546     0.04380
C1874       C  0.97129034  0.78511273  0.66652783    -0.11770
C1875       C  0.50391437  0.80389493  0.65240604     0.01880
C1876       C  0.52772094  0.82587115  0.68355134    -0.10290
C1877       C  0.51767434  0.82989551  0.72754657     0.04370
C1878       C  0.98460361  0.81121743  0.74000951    -0.09710
H1879       H  0.95248621  0.76930019  0.64231616     0.09970
H1880       H  0.55300071  0.84102146  0.67278293     0.07500
H1881       H  0.97611153  0.81607600  0.77193716     0.07350
C1882       C  0.63727871  0.51435478  0.64830034     0.04380
C1883       C  0.65287686  0.50584293  0.61556463    -0.11770
C1884       C  0.67001998  0.99005304  0.62808320     0.01880
C1885       C  0.66586390  0.97678951  0.67254744    -0.10290
C1886       C  0.64730284  0.98293428  0.70500560     0.04370
C1887       C  0.63428838  0.50286736  0.69283013    -0.09710
H1888       H  0.65507340  0.51540733  0.58113404     0.09970
H1889       H  0.67761421  0.96297129  0.68216842     0.07500
H1890       H  0.62177650  0.50957485  0.71792614     0.07350
C1891       C  0.95800338  0.79112985  0.97456774     0.04380
C1892       C  0.96128634  0.79679807  0.02204382    -0.11770
C1893       C  0.98176194  0.82855144  0.03911535     0.01880
C1894       C  0.00165926  0.85369882  0.00824489    -0.10290
C1895       C  0.49787089  0.84782653  0.96094723     0.04370
C1896       C  0.47311675  0.81779250  0.94468449    -0.09710
H1897       H  0.94839941  0.77654278  0.04562898     0.09970
H1898       H  0.01960138  0.87775311  0.02080763     0.07500
H1899       H  0.47036066  0.81352944  0.90804566     0.07350
C1900       C  0.71318624  0.52892182  0.98346892     0.04380
C1901       C  0.68764625  0.01287845  0.95300023    -0.11770
C1902       C  0.65557795  0.99596919  0.96872853     0.01880
C1903       C  0.64841972  0.49832095  0.01509231    -0.10290
C1904       C  0.67461859  0.51751297  0.04517890     0.04370
C1905       C  0.70693380  0.53075515  0.02939217    -0.09710
H1906       H  0.69312675  0.01036801  0.91763094     0.09970
H1907       H  0.62321606  0.48707475  0.02663152     0.07500
H1908       H  0.72743962  0.54382511  0.05267000     0.07350
C1909       C  0.98668976  0.52304041  0.18121009     0.04380
C1910       C  0.96953280  0.98849894  0.18486060    -0.11770
C1911       C  0.98630228  0.97078561  0.18204810     0.01880
C1912       C  0.52085274  0.98821436  0.17753074    -0.10290
C1913       C  0.53895862  0.52288319  0.17580030     0.04370
C1914       C  0.52129348  0.53988697  0.17677585    -0.09710
H1915       H  0.94298555  0.97532111  0.18715750     0.09970
H1916       H  0.53362926  0.97455156  0.17550349     0.07500
H1917       H  0.53442169  0.56636849  0.17408488     0.07350
C1918       C  0.82059495  0.68933653  0.51906516     0.04380
C1919       C  0.85542603  0.70631385  0.51747263    -0.11770
C1920       C  0.87339607  0.68946172  0.51796597     0.01880
C1921       C  0.85561121  0.65469231  0.51933147    -0.10290
C1922       C  0.82088658  0.63669492  0.52071951     0.04370
C1923       C  0.80388660  0.65452218  0.52123383    -0.09710
H1924       H  0.86861857  0.73282021  0.51564447     0.09970
H1925       H  0.86888082  0.64149447  0.51873373     0.07500
H1926       H  0.77730369  0.64112201  0.52161952     0.07350
C1927       C  0.68666423  0.82073744  0.47627781     0.04380
C1928       C  0.65213289  0.80410955  0.47109813    -0.11770
C1929       C  0.63472094  0.82134298  0.47006028     0.01880
C1930       C  0.65235843  0.85583739  0.47214971    -0.10290
C1931       C  0.68672045  0.87334700  0.47732500     0.04370
C1932       C  0.70359524  0.85548617  0.48040730    -0.09710
H1933       H  0.63855514  0.77755353  0.47090652     0.09970
H1934       H  0.63904968  0.86902976  0.47261776     0.07500
H1935       H  0.72986919  0.86861772  0.48609935     0.07350
C1936       C  0.52281949  0.98647491  0.82488097     0.04380
C1937       C  0.98824331  0.96970874  0.82081990    -0.11770
C1938       C  0.97054583  0.98659464  0.81993654     0.01880
C1939       C  0.98824929  0.52125294  0.82254878    -0.10290
C1940       C  0.52289614  0.53919071  0.82631841     0.04370
C1941       C  0.53981559  0.52132050  0.82748504    -0.09710
H1942       H  0.97489407  0.94318885  0.81939250     0.09970
H1943       H  0.97488809  0.53436114  0.82203583     0.07500
H1944       H  0.56629579  0.53456967  0.83070112     0.07350
C1945       C  0.65502312  0.85610389  0.86875795     0.04380
C1946       C  0.68979750  0.87305526  0.86567285    -0.11770
C1947       C  0.70751811  0.85607021  0.86399741     0.01880
C1948       C  0.68927967  0.82114701  0.86389659    -0.10290
C1949       C  0.65438468  0.80345307  0.86682572     0.04370
C1950       C  0.63784669  0.82143067  0.86974914    -0.09710
H1951       H  0.70304293  0.89954549  0.86312490     0.09970
H1952       H  0.70218907  0.80772491  0.86003149     0.07500
H1953       H  0.61124369  0.80830540  0.87001114     0.07350
C1954       C  0.85829055  0.65626287  0.16700527     0.04380
C1955       C  0.87517845  0.69079045  0.16906761    -0.11770
C1956       C  0.85831586  0.70840146  0.16981587     0.01880
C1957       C  0.82344824  0.69058968  0.16939308    -0.10290
C1958       C  0.80572094  0.65588490  0.16839479     0.04370
C1959       C  0.82348405  0.63909386  0.16669837    -0.09710
H1960       H  0.90177123  0.70415748  0.16906445     0.09970
H1961       H  0.81005717  0.70366715  0.17037793     0.07500
H1962       H  0.81009075  0.61255387  0.16571951     0.07350
C1963       C  0.60217857  0.54016153  0.64682712     0.24850
C1964       C  0.63230407  0.54183651  0.63856692    -0.23260
C1965       C  0.65974165  0.57144880  0.62494709     0.19760
C1966       C  0.65752384  0.59932828  0.62093972     0.24790
C1967       C  0.62785684  0.59827467  0.63092528    -0.23200
C1968       C  0.59994617  0.56848329  0.64301545     0.19690
F1969       F  0.57135786  0.56737079  0.65356247    -0.13160
F1970       F  0.57559875  0.51160618  0.66030124    -0.15520
F1971       F  0.68551492  0.62813286  0.61231334    -0.15530
F1972       F  0.68966008  0.57414141  0.61959868    -0.13160
C1973       C  0.56135657  0.97908186  0.37535915     0.24850
C1974       C  0.58998925  0.98229412  0.39526131    -0.23260
C1975       C  0.58790483  0.95609048  0.42123252     0.19760
C1976       C  0.55960834  0.92587068  0.42049879     0.24790
C1977       C  0.53267277  0.92110990  0.39395658    -0.23200
C1978       C  0.53264852  0.94847947  0.37478669     0.19690
F1979       F  0.50610723  0.94483703  0.35141691    -0.13160
F1980       F  0.56221986  0.00452259  0.35234372    -0.15520
F1981       F  0.56116441  0.90031020  0.43926163    -0.15530
F1982       F  0.61472946  0.95748205  0.44083031    -0.13160
C1983       C  0.80207614  0.73834786  0.94197207     0.24850
C1984       C  0.81000498  0.76760018  0.96447671    -0.23260
C1985       C  0.78621873  0.77059272  0.98946441     0.19760
C1986       C  0.75496700  0.74436371  0.99315359     0.24790
C1987       C  0.74705203  0.71476375  0.97211115    -0.23200
C1988       C  0.77024147  0.71160472  0.94588385     0.19690
F1989       F  0.76216270  0.68279382  0.92513644    -0.13160
F1990       F  0.82495274  0.73578014  0.91701953    -0.15520
F1991       F  0.73231769  0.74759057  0.01787353    -0.15530
F1992       F  0.79350615  0.79914213  0.01054688    -0.13160
C1993       C  0.94554277  0.59500789  0.60876548     0.24850
C1994       C  0.97461418  0.59570687  0.62145077    -0.23260
C1995       C  0.97437388  0.56640189  0.63079513     0.19760
C1996       C  0.94480431  0.53659481  0.62892561     0.24790
C1997       C  0.91563696  0.53631208  0.61791056    -0.23200
C1998       C  0.91644880  0.56573052  0.60704283     0.19690
F1999       F  0.88848897  0.56675067  0.59960830    -0.13160
F2000       F  0.94454580  0.62307320  0.60262871    -0.15520
F2001       F  0.94425681  0.50838241  0.64008436    -0.15530
F2002       F  0.00229407  0.56692181  0.64373607    -0.13160
C2003       C  0.87408051  0.77182972  0.72079365     0.24850
C2004       C  0.87628114  0.79826557  0.69578084    -0.23260
C2005       C  0.90610727  0.82229917  0.67734990     0.19760
C2006       C  0.93365028  0.81972542  0.68286030     0.24790
C2007       C  0.93163456  0.79287862  0.70656325    -0.23200
C2008       C  0.90201638  0.76898679  0.72598538     0.19690
F2009       F  0.90027464  0.74325401  0.74927394    -0.13160
F2010       F  0.84512807  0.74902316  0.73947581    -0.15520
F2011       F  0.96246516  0.84327557  0.66449817    -0.15530
F2012       F  0.90845479  0.84841452  0.65417523    -0.13160
C2013       C  0.78012962  0.01393889  0.95184679     0.24850
C2014       C  0.80764709  0.54577273  0.95362672    -0.23260
C2015       C  0.80365848  0.57293108  0.96110327     0.19760
C2016       C  0.77231080  0.56799619  0.96899965     0.24790
C2017       C  0.74542351  0.53599370  0.96932309    -0.23200
C2018       C  0.74931816  0.00917853  0.95964696     0.19690
F2019       F  0.72348225  0.97799989  0.96183352    -0.13160
F2020       F  0.78329567  0.98694487  0.94790830    -0.15520
F2021       F  0.76824824  0.59392935  0.97819774    -0.15530
F2022       F  0.83013452  0.60360355  0.96361083    -0.13160
C2023       C  0.47139139  0.72619147  0.92652578     0.24850
C2024       C  0.94833548  0.69890993  0.95191761    -0.23260
C2025       C  0.92212920  0.70005255  0.97316184     0.19760
C2026       C  0.92246876  0.72982358  0.97590911     0.24790
C2027       C  0.94882674  0.75832089  0.95700370    -0.23200
C2028       C  0.47169884  0.75552104  0.92914680     0.19690
F2029       F  0.49803905  0.78220408  0.91062275    -0.13160
F2030       F  0.49744659  0.72675695  0.90570985    -0.15520
F2031       F  0.89900340  0.73150754  0.00068314    -0.15530
F2032       F  0.89832794  0.67336718  0.99537147    -0.13160
C2033       C  0.82920433  0.93192231  0.32055464     0.24850
C2034       C  0.80364808  0.93429070  0.30009173    -0.23260
C2035       C  0.77799506  0.90774735  0.27727429     0.19760
C2036       C  0.77728050  0.87792658  0.27653171     0.24790
C2037       C  0.80230348  0.87546657  0.29849782    -0.23200
C2038       C  0.82858788  0.90256118  0.31964551     0.19690
F2039       F  0.85315020  0.90014595  0.34035638    -0.13160
F2040       F  0.85435615  0.95799915  0.34208801    -0.15520
F2041       F  0.75225493  0.85154960  0.25559594    -0.15530
F2042       F  0.75372638  0.91070152  0.25691711    -0.13160
C2043       C  0.56593023  0.65209968  0.40615870     0.24850
C2044       C  0.53774860  0.62893345  0.38282334    -0.23260
C2045       C  0.53521475  0.59945053  0.36788757     0.19760
C2046       C  0.56239321  0.59521585  0.37089850     0.24790
C2047       C  0.59197981  0.62047124  0.38885080    -0.23200
C2048       C  0.59276822  0.64790536  0.40929738     0.19690
F2049       F  0.62105925  0.67350171  0.42566197    -0.13160
F2050       F  0.56965266  0.68135618  0.41960888    -0.15520
F2051       F  0.56095426  0.56822808  0.35210227    -0.15530
F2052       F  0.50761083  0.57633537  0.34661406    -0.13160
loop_ 
_geom_bond_atom_site_label_1 
_geom_bond_atom_site_label_2 
_geom_bond_distance 
_geom_bond_site_symmetry_2 
_ccdc_geom_bond_type 
Zn1           O5   1.945       .  S
Zn1           O6   2.039       .  S
Zn1          O10   1.998       .  S
Zn1          O17   2.009       .  S
Zn2           O5   1.972       .  S
Zn2           O7   2.067       .  S
Zn2           O9   2.065       .  S
Zn2          O13   2.034       .  S
Zn3           O5   1.919       .  S
Zn3           O8   1.990       .  S
Zn3          O11   1.923       .  S
Zn3          O14   2.092       .  S
Zn4           O5   1.968       .  S
Zn4          O12   2.046       .  S
Zn4          O15   1.983       .  S
Zn4          O16   2.017       .  S
O6           C18   1.272       .  A
O7           C19   1.279       .  A
O8           C20   1.270       .  A
O9           C18   1.277       .  A
O10          C20   1.274       .  A
O11          C19   1.267       .  A
O12          C21   1.273       .  A
O13          C22   1.280       .  A
O14          C21   1.279       .  A
O15          C22   1.271       .  A
O16          C23   1.273       .  A
O17          C23   1.278       .  A
C18         C415   1.503       .  S
C19          C26   1.464       .  S
C20          C35   1.450       .  S
C21         C370   1.498       .  S
C22          C44   1.471       .  S
C23          C53   1.472       .  S
C24         C505   1.462       .  S
C24          C25   1.393       .  A
C24          C29   1.386       .  A
C25        C1052   1.401   1_455  A
C25          H30   1.084       .  S
C26          C27   1.408       .  A
C26        C1051   1.401       .  A
C27          C28   1.410       .  A
C27          H31   1.083       .  S
C28         C155   1.454       .  S
C28        C1055   1.392       .  A
C29        C1054   1.392   1_455  A
C29          H32   1.086       .  S
C33         C495   1.431       .  S
C33          C38   1.380       .  A
C33         C547   1.376       .  A
C34          C35   1.387   1_565  A
C34         C546   1.376       .  A
C34         H552   1.086       .  S
C35          C36   1.420       .  A
C36          C37   1.414       .  A
C36          H40   1.083       .  S
C37         C215   1.466       .  S
C37         C551   1.394   1_545  A
C38         C550   1.394       .  A
C38          H41   1.087       .  S
H39         C547   1.086       .  S
C42         C485   1.475       .  S
C42          C43   1.404   1_556  A
C42        C1073   1.398       .  A
C43          C44   1.401       .  A
C43          H48   1.083       .  S
C44          C45   1.404   1_554  A
C45        C1072   1.404       .  A
C45          H49   1.083   1_556  S
C46         C242   1.461   1_655  S
C46          C47   1.392       .  A
C46        C1071   1.404       .  A
C47        C1068   1.398       .  A
C47          H50   1.084       .  S
C51         C475   1.453       .  S
C51          C52   1.391   1_556  A
C51         C569   1.386       .  A
C52          C53   1.400       .  A
C52          H57   1.084       .  S
C53          C54   1.412   1_554  A
C54         C568   1.413       .  A
C54          H58   1.082   1_546  S
C55         C100   1.461       .  S
C55          C56   1.392       .  A
C55         C567   1.413       .  A
C56         C564   1.386       .  A
C56          H59   1.086       .  S
Zn60         O64   1.989       .  S
Zn60         O65   2.069       .  S
Zn60         O69   1.961       .  S
Zn60         O76   2.021       .  S
Zn61         O64   1.933       .  S
Zn61         O66   1.927       .  S
Zn61         O68   2.121       .  S
Zn61         O72   1.988       .  S
Zn62         O64   1.977       .  S
Zn62         O67   2.054       .  S
Zn62         O70   2.084       .  S
Zn62         O73   2.112       .  S
Zn63         O64   1.951       .  S
Zn63         O71   2.084       .  S
Zn63         O74   2.003       .  S
Zn63         O75   1.998       .  S
O65          C77   1.274       .  A
O66          C78   1.268       .  A
O67          C79   1.287       .  A
O68          C77   1.282       .  A
O69          C79   1.268       .  A
O70          C78   1.281       .  A
O71          C80   1.278       .  A
O72          C81   1.272       .  A
O73          C80   1.281       .  A
O74          C81   1.270       .  A
O75          C82   1.280       .  A
O76          C82   1.273       .  A
C77         C388   1.514       .  S
C78         C181   1.467       .  S
C79         C108   1.467       .  S
C80         C379   1.527       .  S
C81         C286   1.455       .  S
C82         C245   1.469       .  S
Zn83         O87   1.943       .  S
Zn83         O88   1.969       .  S
Zn83         O92   1.994       .  S
Zn83         O99   2.053       .  S
Zn84         O87   1.974       .  S
Zn84         O89   2.154       .  S
Zn84         O91   2.044       .  S
Zn84         O95   2.040       .  S
Zn85         O87   2.005       .  S
Zn85         O90   2.030       .  S
Zn85         O93   2.078       .  S
Zn85         O96   2.028       .  S
Zn86         O87   1.946       .  S
Zn86         O94   1.981       .  S
Zn86         O97   1.961       .  S
Zn86         O98   2.058       .  S
O88         C100   1.272       .  A
O89         C101   1.290       .  A
O90         C102   1.275       .  A
O91         C100   1.278       .  A
O92         C102   1.276       .  A
O93         C101   1.280       .  A
O94         C103   1.275       .  A
O95         C104   1.277       .  A
O96         C103   1.273       .  A
O97         C104   1.268       .  A
O98         C105   1.272       .  A
O99         C105   1.271       .  A
C101        C408   1.521       .  S
C102        C115   1.475       .  S
C103        C110   1.472       .  S
C104        C124   1.456       .  S
C105        C399   1.509       .  S
C106        C465   1.442       .  S
C106        C107   1.386       .  A
C106        C111   1.383       .  A
C107        C108   1.394       .  A
C107        H112   1.084       .  S
C108        C109   1.416       .  A
C109        C110   1.414       .  A
C109        H113   1.083       .  S
C110        C111   1.397       .  A
C111        H114   1.085       .  S
C115        C116   1.410       .  A
C115        C120   1.403       .  A
C116        C117   1.415       .  A
C116        H121   1.083       .  S
C117        C217   1.471       .  S
C117        C631   1.392       .  A
C118        C119   1.388       .  A
C118        C630   1.392   1_545  A
C118        H122   1.085       .  S
C119        C458   1.460       .  S
C119        C633   1.392   1_545  A
C120        C632   1.392       .  A
C120        H636   1.084       .  S
H123        C633   1.084   1_545  S
C124        C125   1.411       .  A
C124        C129   1.394       .  A
C125        C126   1.409   1_556  A
C125        H130   1.083   1_556  S
C126        C174   1.466       .  S
C126        C127   1.399       .  A
C127        C128   1.389   1_554  A
C127        H131   1.085       .  S
C128        C445   1.447       .  S
C128        C129   1.386       .  A
C129        H132   1.087       .  S
Zn133      O1163   1.965       .  S
Zn133       O138   2.105       .  S
Zn133       O142   1.990       .  S
Zn133       O149   1.991       .  S
Zn134      O1163   1.997       .  S
Zn134       O139   1.995       .  S
Zn134       O141   2.022       .  S
Zn134       O145   1.990       .  S
Zn135       O137   1.940       .  S
Zn135       O140   2.008       .  S
Zn135       O143   2.017       .  S
Zn135       O146   2.075       .  S
Zn136       O137   1.945       .  S
Zn136       O144   2.084       .  S
Zn136       O147   2.017       .  S
Zn136       O148   1.998       .  S
O137      Zn1159   1.965       .  S
O137      Zn1160   1.998       .  S
O138        C150   1.281       .  A
O139        C151   1.268       .  A
O140        C152   1.278       .  A
O141        C150   1.272       .  A
O142       C1178   1.271   1_455  A
O143       C1177   1.280       .  A
O144        C153   1.278       .  A
O145        C154   1.267       .  A
O146        C153   1.275       .  A
O147       C1180   1.280       .  A
O148        C155   1.274       .  A
O149       C1181   1.270   1_455  A
C150        C390   1.494       .  S
C151       O1169   1.280   1_455  A
C151        C336   1.471       .  S
C152       O1168   1.271       .  A
C152        C188   1.458       .  S
C153        C381   1.518       .  S
C154       O1173   1.280   1_455  A
C154        C256   1.468       .  S
C155       O1175   1.270       .  A
Zn156       O160   1.970       .  S
Zn156       O161   2.048       .  S
Zn156       O165   2.078       .  S
Zn156       O172   2.091       .  S
Zn157       O160   1.966       .  S
Zn157       O162   2.012       .  S
Zn157       O164   1.980       .  S
Zn157       O168   2.038       .  S
Zn158       O160   1.942       .  S
Zn158       O163   2.041       .  S
Zn158       O166   2.007       .  S
Zn158       O169   2.005       .  S
Zn159       O160   1.917       .  S
Zn159       O167   1.985       .  S
Zn159       O170   2.090       .  S
Zn159       O171   1.919       .  S
O161        C173   1.280       .  A
O162        C174   1.272       .  A
O163        C175   1.272       .  A
O164        C173   1.270       .  A
O165        C175   1.280       .  A
O166        C174   1.279       .  A
O167        C176   1.269       .  A
O168        C177   1.272       .  A
O169        C176   1.274       .  A
O170        C177   1.278       .  A
O171        C178   1.267       .  A
O172        C178   1.283       .  A
C173        C354   1.475       .  S
C175        C417   1.505       .  S
C176        C183   1.452       .  S
C177        C372   1.497       .  S
C178        C190   1.472       .  S
C179        C498   1.432       .  S
C179        C180   1.381       .  A
C179        C184   1.377       .  A
C180        C181   1.393       .  A
C180        H185   1.086       .  S
C181        C182   1.413       .  A
C182        C183   1.421       .  A
C182        H186   1.082       .  S
C183        C184   1.388       .  A
C184        H187   1.086       .  S
C188        C189   1.412       .  A
C188       C1219   1.392       .  A
C189        C190   1.405       .  A
C189        H194   1.083       .  S
C190        C191   1.404       .  A
C191       C1218   1.399       .  A
C191       H1221   1.084       .  S
C192        C438   1.472       .  S
C192        C193   1.391   1_455  A
C192       C1217   1.399       .  A
C193       C1214   1.392       .  A
C193        H196   1.084   1_655  S
H195       C1217   1.084       .  S
Zn197       O201   1.943       .  S
Zn197       O202   2.001       .  S
Zn197       O206   2.059       .  S
Zn197       O213   1.983       .  S
Zn198       O714   1.942       .  S
Zn198       O203   1.926       .  S
Zn198       O205   1.987       .  S
Zn198       O209   2.093       .  S
Zn199       O201   1.980       .  S
Zn199       O204   2.114       .  S
Zn199       O207   2.077       .  S
Zn199       O210   2.045       .  S
Zn200       O714   2.004       .  S
Zn200       O208   1.971       .  S
Zn200       O211   2.062       .  S
Zn200       O212   2.029       .  S
O201       Zn711   1.942   1_545  S
O201       Zn713   2.004   1_545  S
O202        C214   1.270       .  A
O203        C728   1.266       .  A
O204        C216   1.283       .  A
O205        C727   1.270       .  A
O206        C216   1.275       .  A
O207        C215   1.277       .  A
O208        C217   1.269       .  A
O209        C218   1.279       .  A
O210        C730   1.286   1_545  A
O211        C218   1.273       .  A
O212        C219   1.273       .  A
O213        C732   1.277   1_545  A
C214        O718   1.270   1_545  A
C214        C293   1.456       .  S
C215        O716   1.266   1_545  A
C216        C383   1.521       .  S
C217        O723   1.286       .  A
C218        C392   1.504       .  S
C219        O726   1.277       .  A
C219        C345   1.472       .  S
Zn220       O224   1.953       .  S
Zn220       O225   2.078       .  S
Zn220       O229   2.002       .  S
Zn220       O236   2.008       .  S
Zn221       O224   1.953       .  S
Zn221       O226   2.008       .  S
Zn221       O228   2.083       .  S
Zn221       O232   2.004       .  S
Zn222       O224   2.003       .  S
Zn222       O227   2.031       .  S
Zn222       O230   1.996       .  S
Zn222       O233   2.065       .  S
Zn223       O224   1.956       .  S
Zn223       O231   2.134       .  S
Zn223       O234   2.007       .  S
Zn223       O235   2.006       .  S
O225        C237   1.276       .  A
O226        C238   1.278       .  A
O227        C239   1.275       .  A
O228        C237   1.275       .  A
O229        C239   1.277       .  A
O230        C238   1.269       .  A
O231        C240   1.285       .  A
O232        C241   1.277       .  A
O233        C240   1.277       .  A
O234        C241   1.272       .  A
O235        C242   1.275       .  A
O236        C242   1.276       .  A
C237        C401   1.520       .  S
C238        C247   1.472       .  S
C239        C252   1.480       .  S
C240        C410   1.514       .  S
C241        C302   1.456       .  S
C243        C428   1.457       .  S
C243        C244   1.387       .  A
C243        C248   1.388       .  A
C244        C245   1.396       .  A
C244        H249   1.086       .  S
C245        C246   1.412       .  A
C246        C247   1.414       .  A
C246        H250   1.083       .  S
C247        C248   1.400       .  A
C248        H251   1.084       .  S
C252        C253   1.405       .  A
C252        C257   1.414       .  A
C253       C1280   1.392       .  A
C253       H1284   1.084       .  S
C254        C455   1.459       .  S
C254        C255   1.386       .  A
C254       C1279   1.392       .  A
C255       C1282   1.391       .  A
C255        H259   1.086       .  S
C256        C257   1.415       .  A
C256       C1281   1.391       .  A
C257        H260   1.082       .  S
H258       C1279   1.084       .  S
Zn261       O265   1.905       .  S
Zn261       O266   2.081       .  S
Zn261       O270   1.919       .  S
Zn261       O277   1.913       .  S
Zn262       O265   1.971       .  S
Zn262       O267   1.972       .  S
Zn262       O269   2.075       .  S
Zn262       O273   1.985       .  S
Zn263       O265   1.992       .  S
Zn263       O268   2.087       .  S
Zn263       O271   2.046       .  S
Zn263       O274   2.073       .  S
Zn264       O265   1.990       .  S
Zn264       O272   2.072       .  S
Zn264       O275   2.036       .  S
Zn264       O276   2.079       .  S
O266        C278   1.273       .  A
O267        C279   1.270       .  A
O268        C280   1.280       .  A
O269        C278   1.273       .  A
O270        C280   1.266       .  A
O271        C279   1.282       .  A
O272        C281   1.277       .  A
O273        C282   1.272       .  A
O274        C281   1.277       .  A
O275        C282   1.280       .  A
O276        C283   1.279       .  A
O277        C283   1.266       .  A
C278        C419   1.506       .  S
C279        C288   1.468       .  S
C280        C304   1.471       .  S
C281        C374   1.514       .  S
C282        C297   1.470       .  S
C283        C365   1.468       .  S
C284        C508   1.466       .  S
C284        C285   1.393       .  A
C284        C289   1.402       .  A
C285        C286   1.390       .  A
C285        H290   1.085       .  S
C286        C287   1.405       .  A
C287        C288   1.406       .  A
C287        H291   1.084       .  S
C288        C289   1.400       .  A
C289        H292   1.084       .  S
C293        C298   1.403       .  A
C293        C807   1.390       .  A
C294        C295   1.396       .  A
C294        C806   1.390       .  A
C294        H299   1.085       .  S
C295        C435   1.474       .  S
C295        C809   1.406       .  A
C296        C297   1.403       .  A
C296        C808   1.406       .  A
C296        H813   1.083       .  S
C297        C298   1.404       .  A
C298        H301   1.084       .  S
H300        C809   1.083       .  S
C302        C303   1.419   1_556  A
C302        C307   1.392       .  A
C303        C304   1.413       .  A
C303        H308   1.083       .  S
C304        C305   1.396       .  A
C305        C306   1.384   1_554  A
C305        H309   1.086       .  S
C306        C448   1.442       .  S
C306        C307   1.380       .  A
C307        H310   1.085       .  S
Zn311       O315   1.952       .  S
Zn311       O316   2.085       .  S
Zn311       O320   2.008       .  S
Zn311       O327   2.004       .  S
Zn312       O315   1.949       .  S
Zn312       O317   1.992       .  S
Zn312       O319   2.066       .  S
Zn312       O323   2.017       .  S
Zn313       O315   1.968       .  S
Zn313       O318   1.998       .  S
Zn313       O321   1.996       .  S
Zn313       O324   2.122       .  S
Zn314       O315   1.991       .  S
Zn314       O322   2.051       .  S
Zn314       O325   1.992       .  S
Zn314       O326   2.013       .  S
O316        C328   1.279       .  A
O317        C329   1.276       .  A
O318        C330   1.273       .  A
O319        C328   1.274       .  A
O320        C330   1.273       .  A
O321        C329   1.271       .  A
O322        C331   1.274       .  A
O323        C332   1.279       .  A
O324        C331   1.284       .  A
O325        C332   1.270       .  A
O326        C333   1.272       .  A
O327        C333   1.279       .  A
C328        C397   1.516       .  S
C329        C363   1.450       .  S
C330        C356   1.461   1_455  S
C331        C406   1.507       .  S
C332        C347   1.469       .  S
C333        C338   1.471       .  S
C334        C468   1.447       .  S
C334        C335   1.385       .  A
C334        C339   1.385       .  A
C335       C1362   1.397       .  A
C335        H340   1.086       .  S
C336        C337   1.412       .  A
C336       C1361   1.397   1_455  A
C337        C338   1.416       .  A
C337        H341   1.083       .  S
C338       C1365   1.399   1_455  A
C339       C1364   1.399       .  A
C339        H342   1.085       .  S
C343        C425   1.456       .  S
C343        C344   1.384       .  A
C343        C348   1.388       .  A
C344        C858   1.395   1_545  A
C344        H349   1.085       .  S
C345        C346   1.411       .  A
C345        C857   1.395       .  A
C346        C347   1.416       .  A
C346        H350   1.083       .  S
C347        C861   1.402       .  A
C348        C860   1.402   1_545  A
C348        H351   1.084       .  S
C352        C488   1.475       .  S
C352        C353   1.407   1_556  A
C352       C1383   1.396       .  A
C353        C354   1.405       .  A
C353        H358   1.083       .  S
C354        C355   1.407       .  A
C355       C1382   1.403   1_554  A
C355        H359   1.084       .  S
C356        C357   1.391       .  A
C356       C1381   1.403   1_656  A
C357       C1378   1.396       .  A
C357        H360   1.085       .  S
C361        C478   1.443       .  S
C361        C366   1.386   1_556  A
C361        C875   1.378       .  A
C362        C363   1.386       .  A
C362        C874   1.378       .  A
C362        H367   1.086       .  S
C363        C877   1.414   1_556  A
C364        C365   1.412   1_565  A
C364        C876   1.414   1_554  A
C364        H368   1.083       .  S
C365        C366   1.402       .  A
C366        H369   1.086       .  S
C370        C884   1.413   1_545  A
C370       C1401   1.416       .  A
C371        C372   1.412       .  A
C371        C883   1.413       .  A
C371        H376   1.084       .  S
C372       C1399   1.414       .  A
C373       C1398   1.414   1_455  A
C373        C887   1.415       .  A
C373        H377   1.083       .  S
C374        C375   1.417       .  A
C374        C886   1.415   1_545  A
C375       C1396   1.416   1_455  A
C375        H378   1.083       .  S
C379        C380   1.420       .  A
C379        C384   1.422       .  A
C380        C381   1.423       .  A
C380        H385   1.082       .  S
C381        C382   1.419       .  A
C382        C383   1.416       .  A
C382        H386   1.082       .  S
C383        C384   1.424       .  A
C384        H387   1.083       .  S
C388        C389   1.416       .  A
C388        C393   1.423       .  A
C389        C390   1.416       .  A
C389        H394   1.083       .  S
C390        C391   1.409       .  A
C391        C392   1.409       .  A
C391        H395   1.083       .  S
C392        C393   1.423       .  A
C393        H396   1.084       .  S
C397       C1424   1.414   1_455  A
C397        C915   1.424       .  A
C398        C399   1.414       .  A
C398       C1423   1.414       .  A
C398        H403   1.083       .  S
C399        C913   1.416       .  A
C400        C912   1.416   1_545  A
C400       C1427   1.417       .  A
C400        H404   1.082       .  S
C401        C402   1.422       .  A
C401       C1426   1.417   1_455  A
C402        C910   1.424   1_545  A
C402        H405   1.083       .  S
C406        C407   1.420       .  A
C406        C411   1.415       .  A
C407        C408   1.419       .  A
C407        H412   1.083       .  S
C408        C409   1.425       .  A
C409        C410   1.425       .  A
C409        H413   1.082       .  S
C410        C411   1.414       .  A
C411        H414   1.084       .  S
C415        C416   1.410       .  A
C415        C420   1.419       .  A
C416        C417   1.409       .  A
C416        H421   1.084       .  S
C417        C418   1.421       .  A
C418        C419   1.416       .  A
C418        H422   1.082       .  S
C419        C420   1.413       .  A
C420        H423   1.083       .  S
C424        C425   1.403       .  A
C424        C429   1.396       .  A
C424        F431   1.357       .  S
C425        C426   1.402       .  A
C426        C427   1.376       .  A
C426        F433   1.360       .  S
C427        C428   1.405       .  A
C427        F432   1.360       .  S
C428        C429   1.404       .  A
C429        F430   1.357       .  S
C434        C435   1.406       .  A
C434        C439   1.397       .  A
C434        F441   1.357       .  S
C435        C436   1.410       .  A
C436        C437   1.379       .  A
C436        F443   1.359       .  S
C437        C438   1.406       .  A
C437        F442   1.359       .  S
C438        C439   1.407       .  A
C439        F440   1.358       .  S
C444        C445   1.400       .  A
C444        C449   1.398       .  A
C444        F451   1.357       .  S
C445        C446   1.404       .  A
C446        C447   1.371       .  A
C446        F453   1.360   1_556  S
C447        C448   1.395       .  A
C447        F452   1.360   1_556  S
C448        C449   1.403       .  A
C449        F450   1.357       .  S
C454        C455   1.404       .  A
C454        C459   1.374       .  A
C454        F461   1.360       .  S
C455        C456   1.403       .  A
C456        C457   1.398       .  A
C456        F463   1.357       .  S
C457        C458   1.405       .  A
C457        F462   1.357       .  S
C458        C459   1.405       .  A
C459        F460   1.360       .  S
C464        C465   1.403       .  A
C464        C469   1.397       .  A
C464        F471   1.357       .  S
C465        C466   1.396       .  A
C466        C467   1.373       .  A
C466        F473   1.360       .  S
C467        C468   1.403       .  A
C467        F472   1.360       .  S
C468        C469   1.400       .  A
C469        F470   1.357       .  S
C474        C479   1.373       .  A
C474        C988   1.408       .  A
C474        F481   1.360       .  S
C475        C476   1.403       .  A
C475        C987   1.408       .  A
C476        C477   1.395       .  A
C476        F483   1.357       .  S
C477        C478   1.401       .  A
C477        F482   1.357       .  S
C478        C992   1.396       .  A
C479        C991   1.396       .  A
C479        F480   1.360       .  S
C484        C489   1.379       .  A
C484       C1511   1.407       .  A
C484        F491   1.359       .  S
C485        C486   1.408       .  A
C485       C1510   1.407       .  A
C486        C487   1.399       .  A
C486        F493   1.358       .  S
C487        C488   1.406       .  A
C487        F492   1.358   1_556  S
C488       C1515   1.409       .  A
C489       C1514   1.409       .  A
C489        F490   1.359       .  S
C494        C495   1.398       .  A
C494        C499   1.371       .  A
C494        F501   1.360       .  S
C495        C496   1.398       .  A
C496        C497   1.390       .  A
C496        F503   1.357       .  S
C497        C498   1.397       .  A
C497        F502   1.357       .  S
C498        C499   1.400       .  A
C499        F500   1.360       .  S
C504        C505   1.402       .  A
C504        C509   1.378       .  A
C504        F511   1.360       .  S
C505        C506   1.405       .  A
C506        C507   1.395       .  A
C506        F513   1.358       .  S
C507        C508   1.404       .  A
C507        F512   1.357       .  S
C508        C509   1.410       .  A
C509        F510   1.359       .  S
Zn514       O518   1.945       .  S
Zn514       O519   2.039       .  S
Zn514       O523   1.998       .  S
Zn514       O530   2.009       .  S
Zn515       O518   1.972       .  S
Zn515       O520   2.067       .  S
Zn515       O522   2.065       .  S
Zn515       O526   2.034       .  S
Zn516       O518   1.919       .  S
Zn516       O521   1.990       .  S
Zn516       O524   1.923       .  S
Zn516       O527   2.092       .  S
Zn517       O518   1.968       .  S
Zn517       O525   2.046       .  S
Zn517       O528   1.983       .  S
Zn517       O529   2.017       .  S
O519        C531   1.272       .  A
O520        C532   1.279       .  A
O521        C533   1.270       .  A
O522        C531   1.277       .  A
O523        C533   1.274       .  A
O524        C532   1.267       .  A
O525        C534   1.273       .  A
O526        C535   1.280       .  A
O527        C534   1.279       .  A
O528        C535   1.271       .  A
O529        C536   1.273       .  A
O530        C536   1.278       .  A
C531        C928   1.503       .  S
C532        C539   1.464       .  S
C533        C548   1.450       .  S
C534        C883   1.498       .  S
C535        C557   1.471       .  S
C536        C566   1.472       .  S
C537       C1018   1.462       .  S
C537        C538   1.393       .  A
C537        C542   1.386       .  A
C538       C1565   1.401   1_455  A
C538        H543   1.084       .  S
C539       C1564   1.401       .  A
C539        C540   1.408       .  A
C540        C541   1.410       .  A
C540        H544   1.083       .  S
C541        C668   1.454       .  S
C541       C1568   1.392       .  A
C542       C1567   1.392   1_455  A
C542        H545   1.086       .  S
C546       C1008   1.431       .  S
C546        C551   1.380       .  A
C547        C548   1.387       .  A
C548        C549   1.420       .  A
C549        C550   1.414       .  A
C549        H553   1.083       .  S
C550        C728   1.466       .  S
C551        H554   1.087       .  S
C555        C998   1.475       .  S
C555        C556   1.404   1_556  A
C555       C1586   1.398       .  A
C556        C557   1.401       .  A
C556        H561   1.083       .  S
C557        C558   1.404   1_554  A
C558       C1585   1.404       .  A
C558        H562   1.083   1_556  S
C559        C755   1.461   1_655  S
C559       C1584   1.404       .  A
C559        C560   1.392       .  A
C560       C1581   1.398       .  A
C560        H563   1.084       .  S
C564        C988   1.453       .  S
C564        C565   1.391   1_556  A
C565        C566   1.400       .  A
C565        H570   1.084       .  S
C566        C567   1.412   1_554  A
C567        H571   1.082   1_556  S
C568        C613   1.461   1_545  S
C568        C569   1.392       .  A
C569        H572   1.086       .  S
Zn573       O577   1.989       .  S
Zn573       O578   2.069       .  S
Zn573       O582   1.961       .  S
Zn573       O589   2.021       .  S
Zn574       O577   1.933       .  S
Zn574       O579   1.927       .  S
Zn574       O581   2.121       .  S
Zn574       O585   1.988       .  S
Zn575       O577   1.977       .  S
Zn575       O580   2.054       .  S
Zn575       O583   2.084       .  S
Zn575       O586   2.112       .  S
Zn576       O577   1.951       .  S
Zn576       O584   2.084       .  S
Zn576       O587   2.003       .  S
Zn576       O588   1.998       .  S
O578        C590   1.274       .  A
O579        C591   1.268       .  A
O580        C592   1.287       .  A
O581        C590   1.282       .  A
O582        C592   1.268       .  A
O583        C591   1.281       .  A
O584        C593   1.278       .  A
O585        C594   1.272       .  A
O586        C593   1.281       .  A
O587        C594   1.270       .  A
O588        C595   1.280       .  A
O589        C595   1.273       .  A
C590        C901   1.514       .  S
C591        C694   1.467       .  S
C592        C621   1.467       .  S
C593        C892   1.527       .  S
C594        C799   1.455       .  S
C595        C758   1.469       .  S
Zn596       O600   1.943       .  S
Zn596       O601   1.969       .  S
Zn596       O605   1.994       .  S
Zn596       O612   2.053       .  S
Zn597       O600   1.974       .  S
Zn597       O602   2.154       .  S
Zn597       O604   2.044       .  S
Zn597       O608   2.040       .  S
Zn598       O600   2.005       .  S
Zn598       O603   2.030       .  S
Zn598       O606   2.078       .  S
Zn598       O609   2.028       .  S
Zn599       O600   1.946       .  S
Zn599       O607   1.981       .  S
Zn599       O610   1.961       .  S
Zn599       O611   2.058       .  S
O601        C613   1.272       .  A
O602        C614   1.290       .  A
O603        C615   1.275       .  A
O604        C613   1.278       .  A
O605        C615   1.276       .  A
O606        C614   1.280       .  A
O607        C616   1.275       .  A
O608        C617   1.277       .  A
O609        C616   1.273       .  A
O610        C617   1.268       .  A
O611        C618   1.272       .  A
O612        C618   1.271       .  A
C614        C921   1.521       .  S
C615        C628   1.475       .  S
C616        C623   1.472       .  S
C617        C637   1.456       .  S
C618        C912   1.509       .  S
C619        C978   1.442       .  S
C619        C620   1.386       .  A
C619        C624   1.383       .  A
C620        C621   1.394       .  A
C620        H625   1.084       .  S
C621        C622   1.416       .  A
C622        C623   1.414       .  A
C622        H626   1.083       .  S
C623        C624   1.397       .  A
C624        H627   1.085       .  S
C628        C629   1.410       .  A
C628        C633   1.403       .  A
C629        C630   1.415       .  A
C629        H634   1.083       .  S
C630        C730   1.471       .  S
C631        C632   1.388       .  A
C631        H635   1.085       .  S
C632        C971   1.460       .  S
C637        C638   1.411       .  A
C637        C642   1.394       .  A
C638        C639   1.409   1_556  A
C638        H643   1.083   1_556  S
C639        C687   1.466       .  S
C639        C640   1.399       .  A
C640        C641   1.389   1_554  A
C640        H644   1.085       .  S
C641        C958   1.447       .  S
C641        C642   1.386       .  A
C642        H645   1.087       .  S
Zn646      O1676   1.965       .  S
Zn646       O651   2.105       .  S
Zn646       O655   1.990       .  S
Zn646       O662   1.991       .  S
Zn647      O1676   1.997       .  S
Zn647       O652   1.995       .  S
Zn647       O654   2.022       .  S
Zn647       O658   1.990       .  S
Zn648       O650   1.940       .  S
Zn648       O653   2.008       .  S
Zn648       O656   2.017       .  S
Zn648       O659   2.075       .  S
Zn649       O650   1.945       .  S
Zn649       O657   2.084       .  S
Zn649       O660   2.017       .  S
Zn649       O661   1.998       .  S
O650      Zn1672   1.965       .  S
O650      Zn1673   1.997       .  S
O651        C663   1.281       .  A
O652        C664   1.268       .  A
O653        C665   1.278       .  A
O654        C663   1.272       .  A
O655       C1691   1.271   1_455  A
O656       C1690   1.280       .  A
O657        C666   1.278       .  A
O658        C667   1.267       .  A
O659        C666   1.275       .  A
O660       C1693   1.280       .  A
O661        C668   1.274       .  A
O662       C1694   1.270   1_455  A
C663        C903   1.494       .  S
C664       O1682   1.280   1_455  A
C664        C849   1.471       .  S
C665       O1681   1.271       .  A
C665        C701   1.458       .  S
C666        C894   1.518       .  S
C667       O1686   1.280   1_455  A
C667        C769   1.468       .  S
C668       O1688   1.270       .  A
Zn669       O673   1.970       .  S
Zn669       O674   2.048       .  S
Zn669       O678   2.078       .  S
Zn669       O685   2.091       .  S
Zn670       O673   1.966       .  S
Zn670       O675   2.012       .  S
Zn670       O677   1.980       .  S
Zn670       O681   2.038       .  S
Zn671       O673   1.942       .  S
Zn671       O676   2.041       .  S
Zn671       O679   2.007       .  S
Zn671       O682   2.005       .  S
Zn672       O673   1.917       .  S
Zn672       O680   1.985       .  S
Zn672       O683   2.090       .  S
Zn672       O684   1.919       .  S
O674        C686   1.280       .  A
O675        C687   1.272       .  A
O676        C688   1.272       .  A
O677        C686   1.270       .  A
O678        C688   1.280       .  A
O679        C687   1.279       .  A
O680        C689   1.269       .  A
O681        C690   1.272       .  A
O682        C689   1.274       .  A
O683        C690   1.278       .  A
O684        C691   1.267       .  A
O685        C691   1.283       .  A
C686        C867   1.475       .  S
C688        C930   1.505       .  S
C689        C696   1.452       .  S
C690        C885   1.497       .  S
C691        C703   1.472       .  S
C692       C1011   1.432       .  S
C692        C693   1.381       .  A
C692        C697   1.377       .  A
C693        C694   1.393       .  A
C693        H698   1.086       .  S
C694        C695   1.413       .  A
C695        C696   1.421       .  A
C695        H699   1.082       .  S
C696        C697   1.388       .  A
C697        H700   1.086       .  S
C701        C702   1.412       .  A
C701       C1732   1.392       .  A
C702        C703   1.405       .  A
C702        H707   1.083       .  S
C703        C704   1.404       .  A
C704       C1731   1.399       .  A
C704       H1734   1.084       .  S
C705        C951   1.472       .  S
C705       C1730   1.399       .  A
C705        C706   1.391   1_455  A
C706       C1727   1.392       .  A
C706        H709   1.084   1_655  S
H708       C1730   1.084       .  S
Zn710       O714   1.943       .  S
Zn710       O715   2.001       .  S
Zn710       O719   2.059       .  S
Zn710       O726   1.983       .  S
Zn711       O716   1.926       .  S
Zn711       O718   1.987       .  S
Zn711       O722   2.093       .  S
Zn712       O714   1.980       .  S
Zn712       O717   2.114       .  S
Zn712       O720   2.077       .  S
Zn712       O723   2.045       .  S
Zn713       O721   1.971       .  S
Zn713       O724   2.062       .  S
Zn713       O725   2.029       .  S
O715        C727   1.270       .  A
O717        C729   1.283       .  A
O719        C729   1.275       .  A
O720        C728   1.277       .  A
O721        C730   1.269       .  A
O722        C731   1.279       .  A
O724        C731   1.273       .  A
O725        C732   1.273       .  A
C727        C806   1.456       .  S
C729        C896   1.521       .  S
C731        C905   1.504       .  S
C732        C858   1.472       .  S
Zn733       O737   1.953       .  S
Zn733       O738   2.078       .  S
Zn733       O742   2.002       .  S
Zn733       O749   2.008       .  S
Zn734       O737   1.953       .  S
Zn734       O739   2.008       .  S
Zn734       O741   2.083       .  S
Zn734       O745   2.004       .  S
Zn735       O737   2.003       .  S
Zn735       O740   2.031       .  S
Zn735       O743   1.996       .  S
Zn735       O746   2.065       .  S
Zn736       O737   1.956       .  S
Zn736       O744   2.134       .  S
Zn736       O747   2.007       .  S
Zn736       O748   2.006       .  S
O738        C750   1.276       .  A
O739        C751   1.278       .  A
O740        C752   1.275       .  A
O741        C750   1.275       .  A
O742        C752   1.277       .  A
O743        C751   1.269       .  A
O744        C753   1.285       .  A
O745        C754   1.277       .  A
O746        C753   1.277       .  A
O747        C754   1.272       .  A
O748        C755   1.275       .  A
O749        C755   1.276       .  A
C750        C914   1.520       .  S
C751        C760   1.472       .  S
C752        C765   1.480       .  S
C753        C923   1.514       .  S
C754        C815   1.456       .  S
C756        C941   1.457       .  S
C756        C757   1.387       .  A
C756        C761   1.388       .  A
C757        C758   1.396       .  A
C757        H762   1.086       .  S
C758        C759   1.412       .  A
C759        C760   1.414       .  A
C759        H763   1.083       .  S
C760        C761   1.400       .  A
C761        H764   1.084       .  S
C765        C766   1.405       .  A
C765        C770   1.414       .  A
C766       C1793   1.392       .  A
C766       H1797   1.084       .  S
C767        C968   1.459       .  S
C767       C1792   1.392       .  A
C767        C768   1.386       .  A
C768       C1795   1.391       .  A
C768        H772   1.086       .  S
C769       C1794   1.391       .  A
C769        C770   1.415       .  A
C770        H773   1.082       .  S
H771       C1792   1.084       .  S
Zn774       O778   1.905       .  S
Zn774       O779   2.081       .  S
Zn774       O783   1.919       .  S
Zn774       O790   1.913       .  S
Zn775       O778   1.971       .  S
Zn775       O780   1.972       .  S
Zn775       O782   2.075       .  S
Zn775       O786   1.985       .  S
Zn776       O778   1.992       .  S
Zn776       O781   2.087       .  S
Zn776       O784   2.046       .  S
Zn776       O787   2.073       .  S
Zn777       O778   1.990       .  S
Zn777       O785   2.072       .  S
Zn777       O788   2.036       .  S
Zn777       O789   2.079       .  S
O779        C791   1.273       .  A
O780        C792   1.270       .  A
O781        C793   1.280       .  A
O782        C791   1.273       .  A
O783        C793   1.266       .  A
O784        C792   1.282       .  A
O785        C794   1.277       .  A
O786        C795   1.272       .  A
O787        C794   1.277       .  A
O788        C795   1.280       .  A
O789        C796   1.279       .  A
O790        C796   1.266       .  A
C791        C932   1.506       .  S
C792        C801   1.468       .  S
C793        C817   1.471       .  S
C794        C887   1.514       .  S
C795        C810   1.470       .  S
C796        C878   1.468       .  S
C797       C1021   1.466       .  S
C797        C798   1.393       .  A
C797        C802   1.402       .  A
C798        C799   1.390       .  A
C798        H803   1.085       .  S
C799        C800   1.405       .  A
C800        C801   1.406       .  A
C800        H804   1.084       .  S
C801        C802   1.400       .  A
C802        H805   1.084       .  S
C806        C811   1.403       .  A
C807        C808   1.396       .  A
C807        H812   1.085       .  S
C808        C948   1.474   1_545  S
C809        C810   1.403       .  A
C810        C811   1.404       .  A
C811        H814   1.084       .  S
C815        C816   1.419   1_556  A
C815        C820   1.392       .  A
C816        C817   1.413       .  A
C816        H821   1.083       .  S
C817        C818   1.396       .  A
C818        C819   1.384   1_554  A
C818        H822   1.086       .  S
C819        C961   1.442       .  S
C819        C820   1.380       .  A
C820        H823   1.085       .  S
Zn824       O828   1.952       .  S
Zn824       O829   2.085       .  S
Zn824       O833   2.008       .  S
Zn824       O840   2.004       .  S
Zn825       O828   1.949       .  S
Zn825       O830   1.992       .  S
Zn825       O832   2.066       .  S
Zn825       O836   2.017       .  S
Zn826       O828   1.968       .  S
Zn826       O831   1.998       .  S
Zn826       O834   1.996       .  S
Zn826       O837   2.122       .  S
Zn827       O828   1.991       .  S
Zn827       O835   2.051       .  S
Zn827       O838   1.992       .  S
Zn827       O839   2.013       .  S
O829        C841   1.279       .  A
O830        C842   1.276       .  A
O831        C843   1.273       .  A
O832        C841   1.274       .  A
O833        C843   1.273       .  A
O834        C842   1.271       .  A
O835        C844   1.274       .  A
O836        C845   1.279       .  A
O837        C844   1.284       .  A
O838        C845   1.270       .  A
O839        C846   1.272       .  A
O840        C846   1.279       .  A
C841        C910   1.516       .  S
C842        C876   1.450       .  S
C843        C869   1.461   1_455  S
C844        C919   1.507       .  S
C845        C860   1.469       .  S
C846        C851   1.471       .  S
C847        C981   1.447       .  S
C847        C848   1.385       .  A
C847        C852   1.385       .  A
C848       C1875   1.397       .  A
C848        H853   1.086       .  S
C849       C1874   1.397   1_455  A
C849        C850   1.412       .  A
C850        C851   1.416       .  A
C850        H854   1.083       .  S
C851       C1878   1.399   1_455  A
C852       C1877   1.399       .  A
C852        H855   1.085       .  S
C856        C938   1.456       .  S
C856        C857   1.384       .  A
C856        C861   1.388       .  A
C857        H862   1.085       .  S
C858        C859   1.411       .  A
C859        C860   1.416       .  A
C859        H863   1.083       .  S
C861        H864   1.084       .  S
C865       C1001   1.475       .  S
C865        C866   1.407   1_556  A
C865       C1896   1.396       .  A
C866        C867   1.405       .  A
C866        H871   1.083       .  S
C867        C868   1.407       .  A
C868       C1895   1.403   1_554  A
C868        H872   1.084       .  S
C869       C1894   1.403   1_656  A
C869        C870   1.391       .  A
C870       C1891   1.396       .  A
C870        H873   1.085       .  S
C874        C991   1.443       .  S
C874        C879   1.386   1_556  A
C875        C876   1.386   1_545  A
C875        H880   1.086       .  S
C877        C878   1.412       .  A
C877        H881   1.083       .  S
C878        C879   1.402       .  A
C879        H882   1.086       .  S
C883       C1914   1.416       .  A
C884        C885   1.412       .  A
C884        H889   1.084       .  S
C885       C1912   1.414       .  A
C886       C1911   1.414   1_455  A
C886        H890   1.083       .  S
C887        C888   1.417       .  A
C888       C1909   1.416   1_455  A
C888        H891   1.083       .  S
C892        C893   1.420       .  A
C892        C897   1.422       .  A
C893        C894   1.423       .  A
C893        H898   1.082       .  S
C894        C895   1.419       .  A
C895        C896   1.416       .  A
C895        H899   1.082       .  S
C896        C897   1.424       .  A
C897        H900   1.083       .  S
C901        C902   1.416       .  A
C901        C906   1.423       .  A
C902        C903   1.416       .  A
C902        H907   1.083       .  S
C903        C904   1.409       .  A
C904        C905   1.409       .  A
C904        H908   1.083       .  S
C905        C906   1.423       .  A
C906        H909   1.084       .  S
C910       C1937   1.414   1_455  A
C911       C1936   1.414       .  A
C911        C912   1.414       .  A
C911        H916   1.083       .  S
C913       C1940   1.417       .  A
C913        H917   1.082       .  S
C914       C1939   1.417   1_455  A
C914        C915   1.422       .  A
C915        H918   1.083       .  S
C919        C920   1.420       .  A
C919        C924   1.415       .  A
C920        C921   1.419       .  A
C920        H925   1.083       .  S
C921        C922   1.425       .  A
C922        C923   1.425       .  A
C922        H926   1.082       .  S
C923        C924   1.414       .  A
C924        H927   1.084       .  S
C928        C929   1.410       .  A
C928        C933   1.419       .  A
C929        C930   1.409       .  A
C929        H934   1.084       .  S
C930        C931   1.421       .  A
C931        C932   1.416       .  A
C931        H935   1.082       .  S
C932        C933   1.413       .  A
C933        H936   1.083       .  S
C937        C938   1.403       .  A
C937        C942   1.396       .  A
C937        F944   1.357       .  S
C938        C939   1.402       .  A
C939        C940   1.376       .  A
C939        F946   1.360       .  S
C940        C941   1.405       .  A
C940        F945   1.360       .  S
C941        C942   1.404       .  A
C942        F943   1.357       .  S
C947        C948   1.406       .  A
C947        C952   1.397       .  A
C947        F954   1.357   1_565  S
C948        C949   1.410       .  A
C949        C950   1.379       .  A
C949        F956   1.359       .  S
C950        C951   1.406       .  A
C950        F955   1.359       .  S
C951        C952   1.407       .  A
C952        F953   1.358       .  S
C957        C958   1.400       .  A
C957        C962   1.398       .  A
C957        F964   1.357       .  S
C958        C959   1.404       .  A
C959        C960   1.371       .  A
C959        F966   1.360   1_556  S
C960        C961   1.395       .  A
C960        F965   1.360   1_556  S
C961        C962   1.403       .  A
C962        F963   1.357       .  S
C967        C968   1.404       .  A
C967        C972   1.374       .  A
C967        F974   1.360       .  S
C968        C969   1.403       .  A
C969        C970   1.398       .  A
C969        F976   1.357       .  S
C970        C971   1.405       .  A
C970        F975   1.357       .  S
C971        C972   1.405       .  A
C972        F973   1.360       .  S
C977        C978   1.403       .  A
C977        C982   1.397       .  A
C977        F984   1.357       .  S
C978        C979   1.396       .  A
C979        C980   1.373       .  A
C979        F986   1.360       .  S
C980        C981   1.403       .  A
C980        F985   1.360       .  S
C981        C982   1.400       .  A
C982        F983   1.357       .  S
C987        C992   1.373       .  A
C987        F994   1.360   1_545  S
C988        C989   1.403       .  A
C989        C990   1.395       .  A
C989        F996   1.357       .  S
C990        C991   1.401       .  A
C990        F995   1.357       .  S
C992        F993   1.360   1_545  S
C997       C2024   1.407       .  A
C997       C1002   1.379       .  A
C997       F1004   1.359       .  S
C998       C2023   1.407       .  A
C998        C999   1.408       .  A
C999       C1000   1.399       .  A
C999       F1006   1.358       .  S
C1000      C1001   1.406       .  A
C1000      F1005   1.358   1_556  S
C1001      C2028   1.409       .  A
C1002      C2027   1.409       .  A
C1002      F1003   1.359       .  S
C1007      C1008   1.398       .  A
C1007      C1012   1.371       .  A
C1007      F1014   1.360       .  S
C1008      C1009   1.398       .  A
C1009      C1010   1.390       .  A
C1009      F1016   1.357       .  S
C1010      C1011   1.397       .  A
C1010      F1015   1.357       .  S
C1011      C1012   1.400       .  A
C1012      F1013   1.360       .  S
C1017      C1018   1.402       .  A
C1017      C1022   1.378       .  A
C1017      F1024   1.360       .  S
C1018      C1019   1.405       .  A
C1019      C1020   1.395       .  A
C1019      F1026   1.358       .  S
C1020      C1021   1.404       .  A
C1020      F1025   1.357       .  S
C1021      C1022   1.410       .  A
C1022      F1023   1.359       .  S
Zn1027     O1031   1.945       .  S
Zn1027     O1032   2.039       .  S
Zn1027     O1036   1.998       .  S
Zn1027     O1043   2.009       .  S
Zn1028     O1031   1.972       .  S
Zn1028     O1033   2.067       .  S
Zn1028     O1035   2.065       .  S
Zn1028     O1039   2.034       .  S
Zn1029     O1031   1.919       .  S
Zn1029     O1034   1.990       .  S
Zn1029     O1037   1.923       .  S
Zn1029     O1040   2.092       .  S
Zn1030     O1031   1.968       .  S
Zn1030     O1038   2.046       .  S
Zn1030     O1041   1.983       .  S
Zn1030     O1042   2.017       .  S
O1032      C1044   1.272       .  A
O1033      C1045   1.279       .  A
O1034      C1046   1.270       .  A
O1035      C1044   1.277       .  A
O1036      C1046   1.274       .  A
O1037      C1045   1.267       .  A
O1038      C1047   1.273       .  A
O1039      C1048   1.280       .  A
O1040      C1047   1.279       .  A
O1041      C1048   1.271       .  A
O1042      C1049   1.273       .  A
O1043      C1049   1.278       .  A
C1044      C1441   1.503       .  S
C1045      C1052   1.464       .  S
C1046      C1061   1.450       .  S
C1047      C1396   1.498       .  S
C1048      C1070   1.471       .  S
C1049      C1079   1.472       .  S
C1050      C1531   1.462       .  S
C1050      C1051   1.393       .  A
C1050      C1055   1.386       .  A
C1051      H1056   1.084       .  S
C1052      C1053   1.408       .  A
C1053      C1054   1.410       .  A
C1053      H1057   1.083       .  S
C1054      C1181   1.454       .  S
C1055      H1058   1.086       .  S
C1059      C1521   1.431       .  S
C1059      C1573   1.376       .  A
C1059      C1064   1.380       .  A
C1060      C1572   1.376       .  A
C1060      C1061   1.387   1_565  A
C1060      H1578   1.086       .  S
C1061      C1062   1.420       .  A
C1062      C1063   1.414       .  A
C1062      H1066   1.083       .  S
C1063      C1241   1.466       .  S
C1063      C1577   1.394   1_545  A
C1064      C1576   1.394       .  A
C1064      H1067   1.087       .  S
H1065      C1573   1.086       .  S
C1068      C1511   1.475       .  S
C1068      C1069   1.404   1_556  A
C1069      C1070   1.401       .  A
C1069      H1074   1.083       .  S
C1070      C1071   1.404   1_554  A
C1071      H1075   1.083   1_656  S
C1072      C1268   1.460       .  S
C1072      C1073   1.392       .  A
C1073      H1076   1.084       .  S
C1077      C1501   1.453       .  S
C1077      C1078   1.391   1_556  A
C1077      C1595   1.386       .  A
C1078      C1079   1.400       .  A
C1078      H1083   1.084       .  S
C1079      C1080   1.412   1_554  A
C1080      C1594   1.413       .  A
C1080      H1084   1.082   1_546  S
C1081      C1126   1.461       .  S
C1081      C1593   1.413       .  A
C1081      C1082   1.392       .  A
C1082      C1590   1.386       .  A
C1082      H1085   1.086       .  S
Zn1086     O1090   1.989       .  S
Zn1086     O1091   2.069       .  S
Zn1086     O1095   1.961       .  S
Zn1086     O1102   2.021       .  S
Zn1087     O1090   1.933       .  S
Zn1087     O1092   1.927       .  S
Zn1087     O1094   2.121       .  S
Zn1087     O1098   1.988       .  S
Zn1088     O1090   1.977       .  S
Zn1088     O1093   2.054       .  S
Zn1088     O1096   2.084       .  S
Zn1088     O1099   2.112       .  S
Zn1089     O1090   1.951       .  S
Zn1089     O1097   2.084       .  S
Zn1089     O1100   2.003       .  S
Zn1089     O1101   1.998       .  S
O1091      C1103   1.274       .  A
O1092      C1104   1.268       .  A
O1093      C1105   1.287       .  A
O1094      C1103   1.282       .  A
O1095      C1105   1.268       .  A
O1096      C1104   1.281       .  A
O1097      C1106   1.278       .  A
O1098      C1107   1.272       .  A
O1099      C1106   1.281       .  A
O1100      C1107   1.270       .  A
O1101      C1108   1.280       .  A
O1102      C1108   1.273       .  A
C1103      C1414   1.514       .  S
C1104      C1207   1.467       .  S
C1105      C1134   1.467       .  S
C1106      C1405   1.527       .  S
C1107      C1312   1.455       .  S
C1108      C1271   1.469       .  S
Zn1109     O1113   1.943       .  S
Zn1109     O1114   1.969       .  S
Zn1109     O1118   1.994       .  S
Zn1109     O1125   2.053       .  S
Zn1110     O1113   1.974       .  S
Zn1110     O1115   2.154       .  S
Zn1110     O1117   2.044       .  S
Zn1110     O1121   2.040       .  S
Zn1111     O1113   2.005       .  S
Zn1111     O1116   2.030       .  S
Zn1111     O1119   2.078       .  S
Zn1111     O1122   2.028       .  S
Zn1112     O1113   1.946       .  S
Zn1112     O1120   1.981       .  S
Zn1112     O1123   1.961       .  S
Zn1112     O1124   2.058       .  S
O1114      C1126   1.272       .  A
O1115      C1127   1.290       .  A
O1116      C1128   1.275       .  A
O1117      C1126   1.278       .  A
O1118      C1128   1.276       .  A
O1119      C1127   1.280       .  A
O1120      C1129   1.275       .  A
O1121      C1130   1.277       .  A
O1122      C1129   1.273       .  A
O1123      C1130   1.268       .  A
O1124      C1131   1.272       .  A
O1125      C1131   1.271       .  A
C1127      C1434   1.521       .  S
C1128      C1141   1.475       .  S
C1129      C1136   1.472       .  S
C1130      C1150   1.456       .  S
C1131      C1425   1.509       .  S
C1132      C1491   1.442       .  S
C1132      C1133   1.386       .  A
C1132      C1137   1.383       .  A
C1133      C1134   1.394       .  A
C1133      H1138   1.084       .  S
C1134      C1135   1.416       .  A
C1135      C1136   1.414       .  A
C1135      H1139   1.083       .  S
C1136      C1137   1.397       .  A
C1137      H1140   1.085       .  S
C1141      C1142   1.410       .  A
C1141      C1146   1.403       .  A
C1142      C1143   1.415       .  A
C1142      H1147   1.083       .  S
C1143      C1243   1.471       .  S
C1143      C1657   1.392       .  A
C1144      C1656   1.392   1_545  A
C1144      C1145   1.388       .  A
C1144      H1148   1.085       .  S
C1145      C1484   1.460       .  S
C1145      C1659   1.392   1_545  A
C1146      C1658   1.392       .  A
C1146      H1662   1.084       .  S
H1149      C1659   1.084   1_545  S
C1150      C1151   1.411       .  A
C1150      C1155   1.394       .  A
C1151      C1152   1.409   1_556  A
C1151      H1156   1.083   1_556  S
C1152      C1200   1.466       .  S
C1152      C1153   1.399       .  A
C1153      C1154   1.389   1_554  A
C1153      H1157   1.085       .  S
C1154      C1471   1.447       .  S
C1154      C1155   1.386       .  A
C1155      H1158   1.087       .  S
Zn1159     O1164   2.105       .  S
Zn1159     O1168   1.990       .  S
Zn1159     O1175   1.991       .  S
Zn1160     O1165   1.995       .  S
Zn1160     O1167   2.022       .  S
Zn1160     O1171   1.990       .  S
Zn1161     O1163   1.940   1_655  S
Zn1161     O1166   2.008       .  S
Zn1161     O1169   2.017       .  S
Zn1161     O1172   2.075       .  S
Zn1162     O1163   1.945   1_655  S
Zn1162     O1170   2.084       .  S
Zn1162     O1173   2.017       .  S
Zn1162     O1174   1.998       .  S
O1164      C1176   1.281       .  A
O1165      C1177   1.268       .  A
O1166      C1178   1.278       .  A
O1167      C1176   1.272       .  A
O1170      C1179   1.278       .  A
O1171      C1180   1.267       .  A
O1172      C1179   1.275       .  A
O1174      C1181   1.274       .  A
C1176      C1416   1.494       .  S
C1177      C1362   1.471       .  S
C1178      C1214   1.458       .  S
C1179      C1407   1.518       .  S
C1180      C1282   1.468       .  S
Zn1182     O1186   1.970       .  S
Zn1182     O1187   2.048       .  S
Zn1182     O1191   2.078       .  S
Zn1182     O1198   2.091       .  S
Zn1183     O1186   1.966       .  S
Zn1183     O1188   2.012       .  S
Zn1183     O1190   1.980       .  S
Zn1183     O1194   2.038       .  S
Zn1184     O1186   1.942       .  S
Zn1184     O1189   2.041       .  S
Zn1184     O1192   2.007       .  S
Zn1184     O1195   2.005       .  S
Zn1185     O1186   1.917       .  S
Zn1185     O1193   1.985       .  S
Zn1185     O1196   2.090       .  S
Zn1185     O1197   1.919       .  S
O1187      C1199   1.280       .  A
O1188      C1200   1.272       .  A
O1189      C1201   1.272       .  A
O1190      C1199   1.270       .  A
O1191      C1201   1.280       .  A
O1192      C1200   1.279       .  A
O1193      C1202   1.269       .  A
O1194      C1203   1.272       .  A
O1195      C1202   1.274       .  A
O1196      C1203   1.278       .  A
O1197      C1204   1.267       .  A
O1198      C1204   1.283       .  A
C1199      C1380   1.475       .  S
C1201      C1443   1.505       .  S
C1202      C1209   1.452       .  S
C1203      C1398   1.497       .  S
C1204      C1216   1.472       .  S
C1205      C1524   1.432       .  S
C1205      C1206   1.381       .  A
C1205      C1210   1.377       .  A
C1206      C1207   1.393       .  A
C1206      H1211   1.086       .  S
C1207      C1208   1.413       .  A
C1208      C1209   1.421       .  A
C1208      H1212   1.082       .  S
C1209      C1210   1.388       .  A
C1210      H1213   1.086       .  S
C1214      C1215   1.412       .  A
C1215      C1216   1.405       .  A
C1215      H1220   1.083       .  S
C1216      C1217   1.404   1_655  A
C1218      C1464   1.472       .  S
C1218      C1219   1.391       .  A
C1219      H1222   1.084       .  S
Zn1223     O1227   1.943       .  S
Zn1223     O1228   2.001       .  S
Zn1223     O1232   2.059       .  S
Zn1223     O1239   1.983       .  S
Zn1224     O1740   1.942       .  S
Zn1224     O1229   1.926       .  S
Zn1224     O1231   1.987       .  S
Zn1224     O1235   2.093       .  S
Zn1225     O1227   1.980       .  S
Zn1225     O1230   2.114       .  S
Zn1225     O1233   2.077       .  S
Zn1225     O1236   2.045       .  S
Zn1226     O1740   2.004       .  S
Zn1226     O1234   1.972       .  S
Zn1226     O1237   2.062       .  S
Zn1226     O1238   2.029       .  S
O1227     Zn1737   1.942   1_545  S
O1227     Zn1739   2.004   1_545  S
O1228      C1240   1.270       .  A
O1229      C1754   1.266       .  A
O1230      C1242   1.283       .  A
O1231      C1753   1.270       .  A
O1232      C1242   1.275       .  A
O1233      C1241   1.277       .  A
O1234      C1243   1.269       .  A
O1235      C1244   1.279       .  A
O1236      C1756   1.286   1_545  A
O1237      C1244   1.273       .  A
O1238      C1245   1.273       .  A
O1239      C1758   1.277   1_545  A
C1240      O1744   1.271   1_545  A
C1240      C1319   1.456       .  S
C1241      O1742   1.266   1_545  A
C1242      C1409   1.521       .  S
C1243      O1749   1.286       .  A
C1244      C1418   1.504       .  S
C1245      O1752   1.277       .  A
C1245      C1371   1.472       .  S
Zn1246     O1250   1.953       .  S
Zn1246     O1251   2.078       .  S
Zn1246     O1255   2.002       .  S
Zn1246     O1262   2.008       .  S
Zn1247     O1250   1.953       .  S
Zn1247     O1252   2.008       .  S
Zn1247     O1254   2.083       .  S
Zn1247     O1258   2.004       .  S
Zn1248     O1250   2.003       .  S
Zn1248     O1253   2.031       .  S
Zn1248     O1256   1.996       .  S
Zn1248     O1259   2.065       .  S
Zn1249     O1250   1.956       .  S
Zn1249     O1257   2.134       .  S
Zn1249     O1260   2.007       .  S
Zn1249     O1261   2.006       .  S
O1251      C1263   1.276       .  A
O1252      C1264   1.278       .  A
O1253      C1265   1.275       .  A
O1254      C1263   1.275       .  A
O1255      C1265   1.277       .  A
O1256      C1264   1.269       .  A
O1257      C1266   1.285       .  A
O1258      C1267   1.277       .  A
O1259      C1266   1.277       .  A
O1260      C1267   1.272       .  A
O1261      C1268   1.275       .  A
O1262      C1268   1.276       .  A
C1263      C1427   1.520       .  S
C1264      C1273   1.472       .  S
C1265      C1278   1.480       .  S
C1266      C1436   1.514       .  S
C1267      C1328   1.456       .  S
C1269      C1454   1.457       .  S
C1269      C1270   1.387       .  A
C1269      C1274   1.388       .  A
C1270      C1271   1.396       .  A
C1270      H1275   1.086       .  S
C1271      C1272   1.412       .  A
C1272      C1273   1.414       .  A
C1272      H1276   1.083       .  S
C1273      C1274   1.400       .  A
C1274      H1277   1.084       .  S
C1278      C1279   1.405       .  A
C1278      C1283   1.414       .  A
C1280      C1481   1.459   1_455  S
C1280      C1281   1.386       .  A
C1281      H1285   1.086       .  S
C1282      C1283   1.415       .  A
C1283      H1286   1.082       .  S
Zn1287     O1291   1.905       .  S
Zn1287     O1292   2.081       .  S
Zn1287     O1296   1.919       .  S
Zn1287     O1303   1.913       .  S
Zn1288     O1291   1.971       .  S
Zn1288     O1293   1.972       .  S
Zn1288     O1295   2.075       .  S
Zn1288     O1299   1.985       .  S
Zn1289     O1291   1.992       .  S
Zn1289     O1294   2.087       .  S
Zn1289     O1297   2.046       .  S
Zn1289     O1300   2.073       .  S
Zn1290     O1291   1.990       .  S
Zn1290     O1298   2.072       .  S
Zn1290     O1301   2.036       .  S
Zn1290     O1302   2.079       .  S
O1292      C1304   1.273       .  A
O1293      C1305   1.270       .  A
O1294      C1306   1.280       .  A
O1295      C1304   1.273       .  A
O1296      C1306   1.266       .  A
O1297      C1305   1.282       .  A
O1298      C1307   1.277       .  A
O1299      C1308   1.272       .  A
O1300      C1307   1.277       .  A
O1301      C1308   1.280       .  A
O1302      C1309   1.279       .  A
O1303      C1309   1.266       .  A
C1304      C1445   1.506       .  S
C1305      C1314   1.468       .  S
C1306      C1330   1.471       .  S
C1307      C1400   1.514       .  S
C1308      C1323   1.470       .  S
C1309      C1391   1.468       .  S
C1310      C1534   1.466       .  S
C1310      C1311   1.393       .  A
C1310      C1315   1.402       .  A
C1311      C1312   1.390       .  A
C1311      H1316   1.085       .  S
C1312      C1313   1.405       .  A
C1313      C1314   1.406       .  A
C1313      H1317   1.084       .  S
C1314      C1315   1.400       .  A
C1315      H1318   1.084       .  S
C1319      C1833   1.390       .  A
C1319      C1324   1.403       .  A
C1320      C1832   1.390       .  A
C1320      C1321   1.396       .  A
C1320      H1325   1.085       .  S
C1321      C1461   1.474       .  S
C1321      C1835   1.406       .  A
C1322      C1834   1.406       .  A
C1322      C1323   1.403       .  A
C1322      H1839   1.083       .  S
C1323      C1324   1.404       .  A
C1324      H1327   1.084       .  S
H1326      C1835   1.083       .  S
C1328      C1329   1.419   1_556  A
C1328      C1333   1.392       .  A
C1329      C1330   1.413       .  A
C1329      H1334   1.083       .  S
C1330      C1331   1.396       .  A
C1331      C1332   1.384   1_554  A
C1331      H1335   1.086       .  S
C1332      C1474   1.442       .  S
C1332      C1333   1.380       .  A
C1333      H1336   1.085       .  S
Zn1337     O1341   1.952       .  S
Zn1337     O1342   2.085       .  S
Zn1337     O1346   2.008       .  S
Zn1337     O1353   2.004       .  S
Zn1338     O1341   1.949       .  S
Zn1338     O1343   1.992       .  S
Zn1338     O1345   2.066       .  S
Zn1338     O1349   2.017       .  S
Zn1339     O1341   1.968       .  S
Zn1339     O1344   1.998       .  S
Zn1339     O1347   1.996       .  S
Zn1339     O1350   2.122       .  S
Zn1340     O1341   1.991       .  S
Zn1340     O1348   2.051       .  S
Zn1340     O1351   1.992       .  S
Zn1340     O1352   2.013       .  S
O1342      C1354   1.279       .  A
O1343      C1355   1.276       .  A
O1344      C1356   1.273       .  A
O1345      C1354   1.274       .  A
O1346      C1356   1.273       .  A
O1347      C1355   1.271       .  A
O1348      C1357   1.274       .  A
O1349      C1358   1.279       .  A
O1350      C1357   1.284       .  A
O1351      C1358   1.270       .  A
O1352      C1359   1.272       .  A
O1353      C1359   1.279       .  A
C1354      C1423   1.516       .  S
C1355      C1389   1.450       .  S
C1356      C1382   1.461       .  S
C1357      C1432   1.507       .  S
C1358      C1373   1.469       .  S
C1359      C1364   1.471       .  S
C1360      C1494   1.447       .  S
C1360      C1361   1.385       .  A
C1360      C1365   1.385       .  A
C1361      H1366   1.086       .  S
C1362      C1363   1.412       .  A
C1363      C1364   1.416       .  A
C1363      H1367   1.083       .  S
C1365      H1368   1.085       .  S
C1369      C1451   1.456       .  S
C1369      C1370   1.384       .  A
C1369      C1374   1.388       .  A
C1370      C1884   1.395   1_545  A
C1370      H1375   1.085       .  S
C1371      C1883   1.395       .  A
C1371      C1372   1.411       .  A
C1372      C1373   1.416       .  A
C1372      H1376   1.083       .  S
C1373      C1887   1.402       .  A
C1374      C1886   1.402   1_545  A
C1374      H1377   1.084       .  S
C1378      C1514   1.475       .  S
C1378      C1379   1.407   1_556  A
C1379      C1380   1.405       .  A
C1379      H1384   1.083       .  S
C1380      C1381   1.407   1_655  A
C1381      H1385   1.084       .  S
C1382      C1383   1.391       .  A
C1383      H1386   1.085       .  S
C1387      C1504   1.443       .  S
C1387      C1901   1.378       .  A
C1387      C1392   1.386   1_556  A
C1388      C1900   1.378       .  A
C1388      C1389   1.386       .  A
C1388      H1393   1.086       .  S
C1389      C1903   1.414   1_556  A
C1390      C1902   1.414   1_554  A
C1390      C1391   1.412   1_565  A
C1390      H1394   1.083       .  S
C1391      C1392   1.402       .  A
C1392      H1395   1.086       .  S
C1396      C1910   1.413   1_545  A
C1397      C1909   1.413       .  A
C1397      C1398   1.412       .  A
C1397      H1402   1.084       .  S
C1399      C1913   1.415       .  A
C1399      H1403   1.083       .  S
C1400      C1912   1.415   1_545  A
C1400      C1401   1.417       .  A
C1401      H1404   1.083       .  S
C1405      C1406   1.420       .  A
C1405      C1410   1.422       .  A
C1406      C1407   1.423       .  A
C1406      H1411   1.082       .  S
C1407      C1408   1.419       .  A
C1408      C1409   1.416       .  A
C1408      H1412   1.082       .  S
C1409      C1410   1.424       .  A
C1410      H1413   1.083       .  S
C1414      C1415   1.416       .  A
C1414      C1419   1.423       .  A
C1415      C1416   1.416       .  A
C1415      H1420   1.083       .  S
C1416      C1417   1.409       .  A
C1417      C1418   1.409       .  A
C1417      H1421   1.083       .  S
C1418      C1419   1.423       .  A
C1419      H1422   1.084       .  S
C1423      C1941   1.424       .  A
C1424      C1425   1.414       .  A
C1424      H1429   1.083       .  S
C1425      C1939   1.416       .  A
C1426      C1938   1.416   1_545  A
C1426      H1430   1.082       .  S
C1427      C1428   1.422       .  A
C1428      C1936   1.424   1_545  A
C1428      H1431   1.083       .  S
C1432      C1433   1.420       .  A
C1432      C1437   1.415       .  A
C1433      C1434   1.419       .  A
C1433      H1438   1.083       .  S
C1434      C1435   1.425       .  A
C1435      C1436   1.425       .  A
C1435      H1439   1.082       .  S
C1436      C1437   1.414       .  A
C1437      H1440   1.084       .  S
C1441      C1442   1.410       .  A
C1441      C1446   1.419       .  A
C1442      C1443   1.409       .  A
C1442      H1447   1.084       .  S
C1443      C1444   1.421       .  A
C1444      C1445   1.416       .  A
C1444      H1448   1.082       .  S
C1445      C1446   1.413       .  A
C1446      H1449   1.083       .  S
C1450      C1451   1.403       .  A
C1450      C1455   1.396       .  A
C1450      F1457   1.357       .  S
C1451      C1452   1.402       .  A
C1452      C1453   1.376       .  A
C1452      F1459   1.360       .  S
C1453      C1454   1.405       .  A
C1453      F1458   1.360       .  S
C1454      C1455   1.404       .  A
C1455      F1456   1.357       .  S
C1460      C1461   1.406       .  A
C1460      C1465   1.397       .  A
C1460      F1467   1.357       .  S
C1461      C1462   1.410       .  A
C1462      C1463   1.379       .  A
C1462      F1469   1.359       .  S
C1463      C1464   1.406       .  A
C1463      F1468   1.359       .  S
C1464      C1465   1.407       .  A
C1465      F1466   1.358       .  S
C1470      C1471   1.400       .  A
C1470      C1475   1.398       .  A
C1470      F1477   1.357       .  S
C1471      C1472   1.404       .  A
C1472      C1473   1.371       .  A
C1472      F1479   1.360   1_556  S
C1473      C1474   1.395       .  A
C1473      F1478   1.360   1_556  S
C1474      C1475   1.403       .  A
C1475      F1476   1.357       .  S
C1480      C1481   1.404       .  A
C1480      C1485   1.374       .  A
C1480      F1487   1.360       .  S
C1481      C1482   1.403       .  A
C1482      C1483   1.398       .  A
C1482      F1489   1.357   1_655  S
C1483      C1484   1.405       .  A
C1483      F1488   1.357       .  S
C1484      C1485   1.405       .  A
C1485      F1486   1.360       .  S
C1490      C1491   1.403       .  A
C1490      C1495   1.397       .  A
C1490      F1497   1.357       .  S
C1491      C1492   1.396       .  A
C1492      C1493   1.373       .  A
C1492      F1499   1.360       .  S
C1493      C1494   1.403       .  A
C1493      F1498   1.360       .  S
C1494      C1495   1.400       .  A
C1495      F1496   1.357       .  S
C1500      C2014   1.408       .  A
C1500      C1505   1.373       .  A
C1500      F1507   1.360       .  S
C1501      C2013   1.408       .  A
C1501      C1502   1.403       .  A
C1502      C1503   1.395       .  A
C1502      F1509   1.357       .  S
C1503      C1504   1.401       .  A
C1503      F1508   1.357       .  S
C1504      C2018   1.396       .  A
C1505      C2017   1.396       .  A
C1505      F1506   1.360       .  S
C1510      C1515   1.379       .  A
C1510      F1517   1.359       .  S
C1511      C1512   1.408       .  A
C1512      C1513   1.399       .  A
C1512      F1519   1.358       .  S
C1513      C1514   1.406       .  A
C1513      F1518   1.358   1_556  S
C1515      F1516   1.359       .  S
C1520      C1521   1.398       .  A
C1520      C1525   1.371       .  A
C1520      F1527   1.360       .  S
C1521      C1522   1.398       .  A
C1522      C1523   1.390       .  A
C1522      F1529   1.357       .  S
C1523      C1524   1.397       .  A
C1523      F1528   1.357       .  S
C1524      C1525   1.400       .  A
C1525      F1526   1.360       .  S
C1530      C1531   1.402       .  A
C1530      C1535   1.378       .  A
C1530      F1537   1.360       .  S
C1531      C1532   1.405       .  A
C1532      C1533   1.395       .  A
C1532      F1539   1.358       .  S
C1533      C1534   1.404       .  A
C1533      F1538   1.357       .  S
C1534      C1535   1.410       .  A
C1535      F1536   1.359       .  S
Zn1540     O1544   1.945       .  S
Zn1540     O1545   2.039       .  S
Zn1540     O1549   1.998       .  S
Zn1540     O1556   2.009       .  S
Zn1541     O1544   1.972       .  S
Zn1541     O1546   2.067       .  S
Zn1541     O1548   2.065       .  S
Zn1541     O1552   2.034       .  S
Zn1542     O1544   1.919       .  S
Zn1542     O1547   1.990       .  S
Zn1542     O1550   1.923       .  S
Zn1542     O1553   2.092       .  S
Zn1543     O1544   1.968       .  S
Zn1543     O1551   2.046       .  S
Zn1543     O1554   1.983       .  S
Zn1543     O1555   2.017       .  S
O1545      C1557   1.272       .  A
O1546      C1558   1.279       .  A
O1547      C1559   1.270       .  A
O1548      C1557   1.277       .  A
O1549      C1559   1.274       .  A
O1550      C1558   1.267       .  A
O1551      C1560   1.273       .  A
O1552      C1561   1.280       .  A
O1553      C1560   1.279       .  A
O1554      C1561   1.271       .  A
O1555      C1562   1.273       .  A
O1556      C1562   1.278       .  A
C1557      C1954   1.503       .  S
C1558      C1565   1.464       .  S
C1559      C1574   1.450       .  S
C1560      C1909   1.498       .  S
C1561      C1583   1.471       .  S
C1562      C1592   1.471       .  S
C1563      C2044   1.462       .  S
C1563      C1564   1.393       .  A
C1563      C1568   1.386       .  A
C1564      H1569   1.084       .  S
C1565      C1566   1.408       .  A
C1566      C1567   1.410       .  A
C1566      H1570   1.083       .  S
C1567      C1694   1.454       .  S
C1568      H1571   1.086       .  S
C1572      C2034   1.431       .  S
C1572      C1577   1.380       .  A
C1573      C1574   1.387       .  A
C1574      C1575   1.420       .  A
C1575      C1576   1.414       .  A
C1575      H1579   1.083       .  S
C1576      C1754   1.466       .  S
C1577      H1580   1.087       .  S
C1581      C2024   1.475       .  S
C1581      C1582   1.404   1_556  A
C1582      C1583   1.401       .  A
C1582      H1587   1.083       .  S
C1583      C1584   1.404   1_554  A
C1584      H1588   1.083   1_656  S
C1585      C1781   1.461       .  S
C1585      C1586   1.392       .  A
C1586      H1589   1.084       .  S
C1590      C2014   1.453       .  S
C1590      C1591   1.391   1_556  A
C1591      C1592   1.400       .  A
C1591      H1596   1.084       .  S
C1592      C1593   1.412   1_554  A
C1593      H1597   1.082   1_556  S
C1594      C1639   1.461   1_545  S
C1594      C1595   1.392       .  A
C1595      H1598   1.086       .  S
Zn1599     O1603   1.989       .  S
Zn1599     O1604   2.069       .  S
Zn1599     O1608   1.961       .  S
Zn1599     O1615   2.021       .  S
Zn1600     O1603   1.933       .  S
Zn1600     O1605   1.927       .  S
Zn1600     O1607   2.121       .  S
Zn1600     O1611   1.988       .  S
Zn1601     O1603   1.977       .  S
Zn1601     O1606   2.054       .  S
Zn1601     O1609   2.084       .  S
Zn1601     O1612   2.112       .  S
Zn1602     O1603   1.951       .  S
Zn1602     O1610   2.084       .  S
Zn1602     O1613   2.003       .  S
Zn1602     O1614   1.998       .  S
O1604      C1616   1.274       .  A
O1605      C1617   1.268       .  A
O1606      C1618   1.287       .  A
O1607      C1616   1.282       .  A
O1608      C1618   1.268       .  A
O1609      C1617   1.281       .  A
O1610      C1619   1.278       .  A
O1611      C1620   1.272       .  A
O1612      C1619   1.281       .  A
O1613      C1620   1.270       .  A
O1614      C1621   1.280       .  A
O1615      C1621   1.273       .  A
C1616      C1927   1.514       .  S
C1617      C1720   1.467       .  S
C1618      C1647   1.467       .  S
C1619      C1918   1.527       .  S
C1620      C1825   1.455       .  S
C1621      C1784   1.469       .  S
Zn1622     O1626   1.943       .  S
Zn1622     O1627   1.969       .  S
Zn1622     O1631   1.994       .  S
Zn1622     O1638   2.053       .  S
Zn1623     O1626   1.974       .  S
Zn1623     O1628   2.154       .  S
Zn1623     O1630   2.044       .  S
Zn1623     O1634   2.040       .  S
Zn1624     O1626   2.005       .  S
Zn1624     O1629   2.030       .  S
Zn1624     O1632   2.078       .  S
Zn1624     O1635   2.028       .  S
Zn1625     O1626   1.946       .  S
Zn1625     O1633   1.981       .  S
Zn1625     O1636   1.961       .  S
Zn1625     O1637   2.058       .  S
O1627      C1639   1.272       .  A
O1628      C1640   1.290       .  A
O1629      C1641   1.275       .  A
O1630      C1639   1.278       .  A
O1631      C1641   1.276       .  A
O1632      C1640   1.280       .  A
O1633      C1642   1.275       .  A
O1634      C1643   1.277       .  A
O1635      C1642   1.273       .  A
O1636      C1643   1.268       .  A
O1637      C1644   1.272       .  A
O1638      C1644   1.271       .  A
C1640      C1947   1.521       .  S
C1641      C1654   1.475       .  S
C1642      C1649   1.472       .  S
C1643      C1663   1.456       .  S
C1644      C1938   1.509       .  S
C1645      C2004   1.442       .  S
C1645      C1646   1.386       .  A
C1645      C1650   1.383       .  A
C1646      C1647   1.394       .  A
C1646      H1651   1.084       .  S
C1647      C1648   1.416       .  A
C1648      C1649   1.414       .  A
C1648      H1652   1.083       .  S
C1649      C1650   1.397       .  A
C1650      H1653   1.085       .  S
C1654      C1655   1.410       .  A
C1654      C1659   1.403       .  A
C1655      C1656   1.415       .  A
C1655      H1660   1.083       .  S
C1656      C1756   1.471       .  S
C1657      C1658   1.388       .  A
C1657      H1661   1.085       .  S
C1658      C1997   1.460       .  S
C1663      C1664   1.411       .  A
C1663      C1668   1.394       .  A
C1664      C1665   1.409   1_556  A
C1664      H1669   1.083   1_556  S
C1665      C1713   1.466       .  S
C1665      C1666   1.399       .  A
C1666      C1667   1.389   1_554  A
C1666      H1670   1.085       .  S
C1667      C1984   1.447       .  S
C1667      C1668   1.386       .  A
C1668      H1671   1.087       .  S
Zn1672     O1677   2.105       .  S
Zn1672     O1681   1.990       .  S
Zn1672     O1688   1.991       .  S
Zn1673     O1678   1.995       .  S
Zn1673     O1680   2.022       .  S
Zn1673     O1684   1.990       .  S
Zn1674     O1676   1.940   1_655  S
Zn1674     O1679   2.008       .  S
Zn1674     O1682   2.017       .  S
Zn1674     O1685   2.075       .  S
Zn1675     O1676   1.945   1_655  S
Zn1675     O1683   2.084       .  S
Zn1675     O1686   2.017       .  S
Zn1675     O1687   1.998       .  S
O1677      C1689   1.281       .  A
O1678      C1690   1.268       .  A
O1679      C1691   1.278       .  A
O1680      C1689   1.272       .  A
O1683      C1692   1.278       .  A
O1684      C1693   1.267       .  A
O1685      C1692   1.275       .  A
O1687      C1694   1.274       .  A
C1689      C1929   1.494       .  S
C1690      C1875   1.471       .  S
C1691      C1727   1.458       .  S
C1692      C1920   1.518       .  S
C1693      C1795   1.468       .  S
Zn1695     O1699   1.970       .  S
Zn1695     O1700   2.048       .  S
Zn1695     O1704   2.078       .  S
Zn1695     O1711   2.091       .  S
Zn1696     O1699   1.966       .  S
Zn1696     O1701   2.012       .  S
Zn1696     O1703   1.980       .  S
Zn1696     O1707   2.038       .  S
Zn1697     O1699   1.942       .  S
Zn1697     O1702   2.041       .  S
Zn1697     O1705   2.007       .  S
Zn1697     O1708   2.005       .  S
Zn1698     O1699   1.917       .  S
Zn1698     O1706   1.985       .  S
Zn1698     O1709   2.090       .  S
Zn1698     O1710   1.919       .  S
O1700      C1712   1.280       .  A
O1701      C1713   1.272       .  A
O1702      C1714   1.272       .  A
O1703      C1712   1.270       .  A
O1704      C1714   1.280       .  A
O1705      C1713   1.279       .  A
O1706      C1715   1.269       .  A
O1707      C1716   1.272       .  A
O1708      C1715   1.274       .  A
O1709      C1716   1.278       .  A
O1710      C1717   1.267       .  A
O1711      C1717   1.283       .  A
C1712      C1893   1.475       .  S
C1714      C1956   1.505       .  S
C1715      C1722   1.452       .  S
C1716      C1911   1.497       .  S
C1717      C1729   1.472       .  S
C1718      C2037   1.432       .  S
C1718      C1719   1.381       .  A
C1718      C1723   1.377       .  A
C1719      C1720   1.393       .  A
C1719      H1724   1.086       .  S
C1720      C1721   1.413       .  A
C1721      C1722   1.421       .  A
C1721      H1725   1.082       .  S
C1722      C1723   1.388       .  A
C1723      H1726   1.086       .  S
C1727      C1728   1.412       .  A
C1728      C1729   1.405       .  A
C1728      H1733   1.083       .  S
C1729      C1730   1.404   1_655  A
C1731      C1977   1.472       .  S
C1731      C1732   1.391       .  A
C1732      H1735   1.084       .  S
Zn1736     O1740   1.943       .  S
Zn1736     O1741   2.001       .  S
Zn1736     O1745   2.059       .  S
Zn1736     O1752   1.983       .  S
Zn1737     O1742   1.926       .  S
Zn1737     O1744   1.987       .  S
Zn1737     O1748   2.093       .  S
Zn1738     O1740   1.980       .  S
Zn1738     O1743   2.114       .  S
Zn1738     O1746   2.077       .  S
Zn1738     O1749   2.045       .  S
Zn1739     O1747   1.971       .  S
Zn1739     O1750   2.062       .  S
Zn1739     O1751   2.029       .  S
O1741      C1753   1.270       .  A
O1743      C1755   1.283       .  A
O1745      C1755   1.275       .  A
O1746      C1754   1.277       .  A
O1747      C1756   1.269       .  A
O1748      C1757   1.279       .  A
O1750      C1757   1.273       .  A
O1751      C1758   1.273       .  A
C1753      C1832   1.456       .  S
C1755      C1922   1.521       .  S
C1757      C1931   1.504       .  S
C1758      C1884   1.472       .  S
Zn1759     O1763   1.953       .  S
Zn1759     O1764   2.078       .  S
Zn1759     O1768   2.002       .  S
Zn1759     O1775   2.008       .  S
Zn1760     O1763   1.953       .  S
Zn1760     O1765   2.008       .  S
Zn1760     O1767   2.083       .  S
Zn1760     O1771   2.004       .  S
Zn1761     O1763   2.003       .  S
Zn1761     O1766   2.031       .  S
Zn1761     O1769   1.996       .  S
Zn1761     O1772   2.065       .  S
Zn1762     O1763   1.956       .  S
Zn1762     O1770   2.134       .  S
Zn1762     O1773   2.007       .  S
Zn1762     O1774   2.006       .  S
O1764      C1776   1.276       .  A
O1765      C1777   1.278       .  A
O1766      C1778   1.275       .  A
O1767      C1776   1.275       .  A
O1768      C1778   1.277       .  A
O1769      C1777   1.269       .  A
O1770      C1779   1.285       .  A
O1771      C1780   1.277       .  A
O1772      C1779   1.277       .  A
O1773      C1780   1.272       .  A
O1774      C1781   1.275       .  A
O1775      C1781   1.276       .  A
C1776      C1940   1.520       .  S
C1777      C1786   1.472       .  S
C1778      C1791   1.480       .  S
C1779      C1949   1.514       .  S
C1780      C1841   1.456       .  S
C1782      C1967   1.457       .  S
C1782      C1783   1.387       .  A
C1782      C1787   1.388       .  A
C1783      C1784   1.396       .  A
C1783      H1788   1.086       .  S
C1784      C1785   1.412       .  A
C1785      C1786   1.414       .  A
C1785      H1789   1.083       .  S
C1786      C1787   1.400       .  A
C1787      H1790   1.084       .  S
C1791      C1792   1.405       .  A
C1791      C1796   1.414       .  A
C1793      C1994   1.459   1_455  S
C1793      C1794   1.386       .  A
C1794      H1798   1.086       .  S
C1795      C1796   1.415       .  A
C1796      H1799   1.082       .  S
Zn1800     O1804   1.905       .  S
Zn1800     O1805   2.081       .  S
Zn1800     O1809   1.919       .  S
Zn1800     O1816   1.913       .  S
Zn1801     O1804   1.971       .  S
Zn1801     O1806   1.972       .  S
Zn1801     O1808   2.075       .  S
Zn1801     O1812   1.985       .  S
Zn1802     O1804   1.992       .  S
Zn1802     O1807   2.087       .  S
Zn1802     O1810   2.046       .  S
Zn1802     O1813   2.073       .  S
Zn1803     O1804   1.990       .  S
Zn1803     O1811   2.072       .  S
Zn1803     O1814   2.036       .  S
Zn1803     O1815   2.079       .  S
O1805      C1817   1.273       .  A
O1806      C1818   1.270       .  A
O1807      C1819   1.280       .  A
O1808      C1817   1.273       .  A
O1809      C1819   1.266       .  A
O1810      C1818   1.282       .  A
O1811      C1820   1.277       .  A
O1812      C1821   1.272       .  A
O1813      C1820   1.277       .  A
O1814      C1821   1.280       .  A
O1815      C1822   1.279       .  A
O1816      C1822   1.266       .  A
C1817      C1958   1.506       .  S
C1818      C1827   1.468       .  S
C1819      C1843   1.471       .  S
C1820      C1913   1.514       .  S
C1821      C1836   1.470       .  S
C1822      C1904   1.468       .  S
C1823      C2047   1.466       .  S
C1823      C1824   1.393       .  A
C1823      C1828   1.402       .  A
C1824      C1825   1.390       .  A
C1824      H1829   1.085       .  S
C1825      C1826   1.405       .  A
C1826      C1827   1.406       .  A
C1826      H1830   1.084       .  S
C1827      C1828   1.400       .  A
C1828      H1831   1.084       .  S
C1832      C1837   1.403       .  A
C1833      C1834   1.396       .  A
C1833      H1838   1.085       .  S
C1834      C1974   1.474   1_545  S
C1835      C1836   1.403       .  A
C1836      C1837   1.404       .  A
C1837      H1840   1.084       .  S
C1841      C1842   1.419   1_556  A
C1841      C1846   1.392       .  A
C1842      C1843   1.413       .  A
C1842      H1847   1.083       .  S
C1843      C1844   1.396       .  A
C1844      C1845   1.384   1_554  A
C1844      H1848   1.086       .  S
C1845      C1987   1.442       .  S
C1845      C1846   1.380       .  A
C1846      H1849   1.085       .  S
Zn1850     O1854   1.952       .  S
Zn1850     O1855   2.085       .  S
Zn1850     O1859   2.008       .  S
Zn1850     O1866   2.004       .  S
Zn1851     O1854   1.949       .  S
Zn1851     O1856   1.992       .  S
Zn1851     O1858   2.066       .  S
Zn1851     O1862   2.017       .  S
Zn1852     O1854   1.968       .  S
Zn1852     O1857   1.998       .  S
Zn1852     O1860   1.996       .  S
Zn1852     O1863   2.122       .  S
Zn1853     O1854   1.991       .  S
Zn1853     O1861   2.051       .  S
Zn1853     O1864   1.992       .  S
Zn1853     O1865   2.013       .  S
O1855      C1867   1.279       .  A
O1856      C1868   1.276       .  A
O1857      C1869   1.273       .  A
O1858      C1867   1.274       .  A
O1859      C1869   1.273       .  A
O1860      C1868   1.271       .  A
O1861      C1870   1.274       .  A
O1862      C1871   1.279       .  A
O1863      C1870   1.284       .  A
O1864      C1871   1.270       .  A
O1865      C1872   1.272       .  A
O1866      C1872   1.279       .  A
C1867      C1936   1.516       .  S
C1868      C1902   1.450       .  S
C1869      C1895   1.461       .  S
C1870      C1945   1.507       .  S
C1871      C1886   1.469       .  S
C1872      C1877   1.471       .  S
C1873      C2007   1.447       .  S
C1873      C1874   1.385       .  A
C1873      C1878   1.385       .  A
C1874      H1879   1.086       .  S
C1875      C1876   1.412       .  A
C1876      C1877   1.416       .  A
C1876      H1880   1.083       .  S
C1878      H1881   1.085       .  S
C1882      C1964   1.456       .  S
C1882      C1883   1.384       .  A
C1882      C1887   1.388       .  A
C1883      H1888   1.085       .  S
C1884      C1885   1.411       .  A
C1885      C1886   1.416       .  A
C1885      H1889   1.083       .  S
C1887      H1890   1.084       .  S
C1891      C2027   1.475       .  S
C1891      C1892   1.407   1_556  A
C1892      C1893   1.405       .  A
C1892      H1897   1.083       .  S
C1893      C1894   1.407   1_655  A
C1894      H1898   1.084       .  S
C1895      C1896   1.391       .  A
C1896      H1899   1.085       .  S
C1900      C2017   1.443       .  S
C1900      C1905   1.386   1_556  A
C1901      C1902   1.386   1_545  A
C1901      H1906   1.086       .  S
C1903      C1904   1.412       .  A
C1903      H1907   1.083       .  S
C1904      C1905   1.402       .  A
C1905      H1908   1.086       .  S
C1910      C1911   1.412       .  A
C1910      H1915   1.084       .  S
C1912      H1916   1.083       .  S
C1913      C1914   1.417       .  A
C1914      H1917   1.083       .  S
C1918      C1919   1.420       .  A
C1918      C1923   1.422       .  A
C1919      C1920   1.423       .  A
C1919      H1924   1.082       .  S
C1920      C1921   1.419       .  A
C1921      C1922   1.416       .  A
C1921      H1925   1.082       .  S
C1922      C1923   1.424       .  A
C1923      H1926   1.083       .  S
C1927      C1928   1.416       .  A
C1927      C1932   1.423       .  A
C1928      C1929   1.416       .  A
C1928      H1933   1.083       .  S
C1929      C1930   1.409       .  A
C1930      C1931   1.409       .  A
C1930      H1934   1.083       .  S
C1931      C1932   1.423       .  A
C1932      H1935   1.084       .  S
C1937      C1938   1.414       .  A
C1937      H1942   1.083       .  S
C1939      H1943   1.082       .  S
C1940      C1941   1.422       .  A
C1941      H1944   1.083       .  S
C1945      C1946   1.420       .  A
C1945      C1950   1.415       .  A
C1946      C1947   1.419       .  A
C1946      H1951   1.083       .  S
C1947      C1948   1.425       .  A
C1948      C1949   1.425       .  A
C1948      H1952   1.082       .  S
C1949      C1950   1.414       .  A
C1950      H1953   1.084       .  S
C1954      C1955   1.410       .  A
C1954      C1959   1.419       .  A
C1955      C1956   1.409       .  A
C1955      H1960   1.084       .  S
C1956      C1957   1.421       .  A
C1957      C1958   1.416       .  A
C1957      H1961   1.082       .  S
C1958      C1959   1.413       .  A
C1959      H1962   1.083       .  S
C1963      C1964   1.403       .  A
C1963      C1968   1.396       .  A
C1963      F1970   1.357       .  S
C1964      C1965   1.402       .  A
C1965      C1966   1.376       .  A
C1965      F1972   1.360       .  S
C1966      C1967   1.405       .  A
C1966      F1971   1.360       .  S
C1967      C1968   1.404       .  A
C1968      F1969   1.357       .  S
C1973      C1974   1.406       .  A
C1973      C1978   1.397       .  A
C1973      F1980   1.357   1_565  S
C1974      C1975   1.410       .  A
C1975      C1976   1.379       .  A
C1975      F1982   1.359       .  S
C1976      C1977   1.406       .  A
C1976      F1981   1.359       .  S
C1977      C1978   1.407       .  A
C1978      F1979   1.358       .  S
C1983      C1984   1.400       .  A
C1983      C1988   1.398       .  A
C1983      F1990   1.357       .  S
C1984      C1985   1.404       .  A
C1985      C1986   1.371       .  A
C1985      F1992   1.360   1_556  S
C1986      C1987   1.395       .  A
C1986      F1991   1.360   1_556  S
C1987      C1988   1.403       .  A
C1988      F1989   1.357       .  S
C1993      C1994   1.404       .  A
C1993      C1998   1.374       .  A
C1993      F2000   1.360       .  S
C1994      C1995   1.403       .  A
C1995      C1996   1.398       .  A
C1995      F2002   1.357   1_655  S
C1996      C1997   1.405       .  A
C1996      F2001   1.357       .  S
C1997      C1998   1.405       .  A
C1998      F1999   1.360       .  S
C2003      C2004   1.403       .  A
C2003      C2008   1.397       .  A
C2003      F2010   1.357       .  S
C2004      C2005   1.396       .  A
C2005      C2006   1.373       .  A
C2005      F2012   1.360       .  S
C2006      C2007   1.403       .  A
C2006      F2011   1.360       .  S
C2007      C2008   1.400       .  A
C2008      F2009   1.357       .  S
C2013      C2018   1.373       .  A
C2013      F2020   1.360   1_545  S
C2014      C2015   1.403       .  A
C2015      C2016   1.395       .  A
C2015      F2022   1.357       .  S
C2016      C2017   1.401       .  A
C2016      F2021   1.357       .  S
C2018      F2019   1.360   1_545  S
C2023      C2028   1.379       .  A
C2023      F2030   1.359       .  S
C2024      C2025   1.408       .  A
C2025      C2026   1.399       .  A
C2025      F2032   1.358       .  S
C2026      C2027   1.406       .  A
C2026      F2031   1.358   1_556  S
C2028      F2029   1.359       .  S
C2033      C2034   1.398       .  A
C2033      C2038   1.371       .  A
C2033      F2040   1.360       .  S
C2034      C2035   1.398       .  A
C2035      C2036   1.390       .  A
C2035      F2042   1.357       .  S
C2036      C2037   1.397       .  A
C2036      F2041   1.357       .  S
C2037      C2038   1.400       .  A
C2038      F2039   1.360       .  S
C2043      C2044   1.402       .  A
C2043      C2048   1.378       .  A
C2043      F2050   1.360       .  S
C2044      C2045   1.405       .  A
C2045      C2046   1.395       .  A
C2045      F2052   1.358       .  S
C2046      C2047   1.404       .  A
C2046      F2051   1.357       .  S
C2047      C2048   1.410       .  A
C2048      F2049   1.359       .  S
