geometry optimzed in LAMMPS
_audit_creation_date              2020-12-01 
_audit_creation_method            'lammps2cif' 
_symmetry_space_group_name_H-M    'P1' 
_symmetry_Int_Tables_number       1 
_symmetry_cell_setting            triclinic 
loop_ 
_symmetry_equiv_pos_as_xyz 
  x,y,z 
_cell_length_a                    56.34265403 
_cell_length_b                    56.367397533914534 
_cell_length_c                    42.53609470094969 
_cell_angle_alpha                 89.82008843126006 
_cell_angle_beta                  89.9674921376993 
_cell_angle_gamma                 123.68632747631155 
loop_ 
_atom_site_label 
_atom_site_type_symbol 
_atom_site_fract_x 
_atom_site_fract_y 
_atom_site_fract_z 
_atom_site_charge 
C1          C  0.86701998  0.33049371  0.50786327     0.03500
C2          C  0.85374672  0.32599963  0.03684551    -0.12700
C3          C  0.82501111  0.31669884  0.03836497     0.01000
C4          C  0.80963803  0.31184722  0.01073306    -0.11200
C5          C  0.82259910  0.31642044  0.48143931     0.03500
C6          C  0.85170790  0.32679401  0.48006780    -0.10600
H7          H  0.86551027  0.32967703  0.05843208     0.09100
H8          H  0.78739188  0.30471678  0.01206447     0.06600
H9          H  0.86232244  0.33178956  0.45743954     0.06400
C10         C  0.46710568  0.03953758  0.01025616     0.03500
C11         C  0.47433941  0.05295391  0.03981388    -0.12700
C12         C  0.49153104  0.08280273  0.04172757     0.01000
C13         C  0.50133030  0.09918654  0.01419960    -0.11200
C14         C  0.49328811  0.08666936  0.48307576     0.03500
C15         C  0.47553934  0.05683319  0.48100119    -0.10600
H16         H  0.46753974  0.04023322  0.06113476     0.09100
H17         H  0.51547579  0.12219474  0.01588575     0.06600
H18         H  0.46968467  0.04668898  0.45817467     0.06400
C19         C  0.58235817  0.43897250  0.00546591     0.03500
C20         C  0.59255331  0.43258590  0.47874575    -0.12700
C21         C  0.60639054  0.41822447  0.48045942     0.01000
C22         C  0.60864024  0.40899017  0.00944086    -0.11200
C23         C  0.60061952  0.41636755  0.03689700     0.03500
C24         C  0.58782792  0.43169341  0.03499232    -0.10600
H25         H  0.58823301  0.43807066  0.45597106     0.09100
H26         H  0.61776717  0.39640698  0.01104653     0.06600
H27         H  0.58142080  0.43719869  0.05631560     0.06400
Fe28       Fe  0.64553082  0.24545913  0.25859268     1.65800
Fe29       Fe  0.60221181  0.26949541  0.25786026     1.73200
Fe30       Fe  0.67408941  0.31650772  0.25653996     1.54400
O31         O  0.69097831  0.31000297  0.29570458    -0.81300
O32         O  0.61301635  0.30302253  0.22774094    -0.79600
O33         O  0.68073628  0.26621647  0.28808138    -0.83800
O34         O  0.67108531  0.26002699  0.21930458    -0.78700
O35         O  0.65611405  0.33129111  0.28649304    -0.80500
O36         O  0.58986391  0.24318003  0.21946444    -0.83200
C37         C  0.69216491  0.28495658  0.21284930     0.97600
C38         C  0.69359034  0.28974023  0.30279017     1.05000
O39         O  0.64062537  0.27716629  0.25740862    -1.12200
O40         O  0.58575339  0.23495460  0.28830349    -0.74600
O41         O  0.62061136  0.22854005  0.29810389    -0.78100
O42         O  0.69707584  0.30708441  0.22695891    -0.78800
C43         C  0.59617627  0.22356217  0.30387159     0.96500
O44         O  0.61081239  0.22006207  0.22949848    -0.76800
O45         O  0.61159148  0.29487436  0.29640031    -0.82000
C46         C  0.63504618  0.32131295  0.21225209     0.99100
C47         C  0.63329174  0.31942233  0.30261138     1.05000
O48         O  0.65961332  0.32639963  0.21750526    -0.77600
C49         C  0.59313734  0.22300584  0.21434895     1.03300
C50         C  0.08030302  0.42840846  0.49273325     0.03500
C51         C  0.09434656  0.43595338  0.46350809    -0.12700
C52         C  0.12416814  0.45125525  0.46210547     0.01000
C53         C  0.14048036  0.45884096  0.99125131    -0.11200
C54         C  0.12638136  0.45093260  0.02028210     0.03500
C55         C  0.09651100  0.43572763  0.02114232    -0.10600
H56         H  0.08218175  0.43011804  0.44192443     0.09100
H57         H  0.16360633  0.47182234  0.99055879     0.06600
H58         H  0.08556535  0.43036448  0.04360032     0.06400
C59         C  0.37000360  0.82673512  0.98958039     0.03500
C60         C  0.37026365  0.81355274  0.01764409    -0.12700
C61         C  0.36277747  0.78533721  0.01748332     0.01000
C62         C  0.35467412  0.77011661  0.98930855    -0.11200
C63         C  0.35195624  0.78263256  0.46154290     0.03500
C64         C  0.36035590  0.81124631  0.46163085    -0.10600
H65         H  0.37694340  0.82545098  0.03943432     0.09100
H66         H  0.34922852  0.74839707  0.98926761     0.06600
H67         H  0.36042903  0.82126787  0.43981938     0.06400
C68         C  0.47884015  0.53807073  0.99356249     0.03500
C69         C  0.46844164  0.54152760  0.02216098    -0.12700
C70         C  0.45117278  0.55229538  0.02226164     0.01000
C71         C  0.44368716  0.55880255  0.99379103    -0.11200
C72         C  0.45258209  0.55311017  0.46555691     0.03500
C73         C  0.47016576  0.54276483  0.46539108    -0.10600
H74         H  0.47358870  0.53569257  0.04418884     0.09100
H75         H  0.42993084  0.56665259  0.99378841     0.06600
H76         H  0.47690653  0.53893930  0.44318226     0.06400
Fe77       Fe  0.35780216  0.63230208  0.24406605     1.65800
Fe78       Fe  0.30742153  0.56034133  0.24532792     1.73200
Fe79       Fe  0.28692983  0.60673369  0.23724792     1.54400
O80         O  0.30253579  0.63609085  0.27308971    -0.81300
O81         O  0.27512286  0.54429652  0.21239147    -0.79600
O82         O  0.34928604  0.65452947  0.27590248    -0.83800
O83         O  0.35443384  0.65361537  0.20680611    -0.78700
O84         O  0.26033784  0.57539628  0.26960976    -0.80500
O85         O  0.33487130  0.56689926  0.20959390    -0.83200
C86         C  0.33437433  0.65455620  0.19498145     0.97600
C87         C  0.32710466  0.65355265  0.28446155     1.05000
O88         O  0.31747137  0.59990051  0.24227583    -1.12200
O89         O  0.33796924  0.56930070  0.27832325    -0.74600
O90         O  0.36755845  0.61628413  0.28184682    -0.78100
O91         O  0.30872353  0.63859501  0.20410912    -0.78800
C92         C  0.35910394  0.59133901  0.29066413     0.96500
O93         O  0.37011458  0.61323033  0.21198374    -0.76800
O94         O  0.27923985  0.55058712  0.28146412    -0.82000
C95         C  0.26421188  0.55448150  0.19563928     0.99100
C96         C  0.26086546  0.55658687  0.28554086     1.05000
O97         O  0.26856999  0.57872720  0.20052750    -0.77600
C98         C  0.35859457  0.58838213  0.20034955     1.03300
C99         C  0.40079192  0.54564881  0.40389964    -0.22100
C100        C  0.41824234  0.57021150  0.38577427     0.09900
C101        C  0.44772233  0.58796539  0.39221203     0.10300
C102        C  0.45895070  0.58119397  0.41755425    -0.17000
C103        C  0.44121983  0.55710238  0.43630252    -0.27500
C104        C  0.41196396  0.53875333  0.42899314     0.18600
C105        C  0.40476181  0.57680496  0.36047166     0.12600
C106        C  0.46718681  0.61395886  0.37242430    -0.11800
H107        H  0.48135551  0.59514919  0.42338780     0.12800
C108        C  0.39250954  0.51188849  0.44765678    -0.22600
H109        H  0.37823479  0.53204013  0.39859044     0.08500
C110        C  0.39516099  0.56060334  0.33266409     0.04800
C111        C  0.38036687  0.56598210  0.31044728    -0.19900
C112        C  0.37513403  0.58734222  0.31522195    -0.12200
C113        C  0.38511519  0.60387773  0.34296030     0.13500
C114        C  0.39973830  0.59826699  0.36535667    -0.22600
C115        C  0.40073851  0.53781250  0.32630698    -0.05700
H116        H  0.37298288  0.55352977  0.28903633     0.15100
C117        C  0.37942333  0.62653725  0.34969184    -0.15800
H118        H  0.40688147  0.61030919  0.38704455     0.09400
H119        H  0.37056709  0.49948625  0.43788600     0.07200
H120        H  0.39103505  0.51714849  0.47237909     0.08400
H121        H  0.40188043  0.49897164  0.94622233     0.07500
H122        H  0.46054690  0.62913592  0.37395283     0.02400
H123        H  0.46617650  0.60756941  0.34754021     0.02800
H124        H  0.48969689  0.62516301  0.38032646     0.06300
H125        H  0.39250186  0.52778598  0.30296561     0.05300
H126        H  0.39010725  0.52077414  0.34440675    -0.00400
H127        H  0.42405494  0.54730088  0.32675322     0.01000
H128        H  0.38740582  0.63619925  0.37323508     0.04700
H129        H  0.35611422  0.61708520  0.34905382     0.06600
H130        H  0.39034489  0.64391493  0.33199883     0.07500
C131        C  0.39104504  0.59017455  0.12150434    -0.22100
C132        C  0.39933203  0.57125688  0.12730823     0.09900
C133        C  0.39473666  0.55854932  0.15719213     0.10300
C134        C  0.38162518  0.56485293  0.18070420    -0.17000
C135        C  0.37337239  0.58382877  0.17501563    -0.27500
C136        C  0.37793283  0.59655163  0.14499073     0.18600
C137        C  0.41254398  0.56481970  0.10160030     0.12600
C138        C  0.40357920  0.53828944  0.16413388    -0.11800
H139        H  0.37779841  0.55496400  0.20367420     0.12800
C140        C  0.36834284  0.61599446  0.13653430    -0.22600
H141        H  0.39446348  0.59968018  0.09836709     0.08500
C142        C  0.39577163  0.54307791  0.07969861     0.04800
C143        C  0.40924330  0.53852115  0.05499541    -0.19900
C144        C  0.43905325  0.55540518  0.05154560    -0.12200
C145        C  0.45585957  0.57689355  0.07387853     0.13500
C146        C  0.44232118  0.58113896  0.09882004    -0.22600
C147        C  0.36370302  0.52507919  0.08211202    -0.05700
H148        H  0.39643093  0.52225429  0.03766386     0.15100
C149        C  0.48784611  0.59655374  0.07147772    -0.15800
H150        H  0.45503931  0.59781678  0.11579325     0.09400
H151        H  0.35330784  0.60683893  0.11643683     0.07200
H152        H  0.38712029  0.63722528  0.12955386     0.08400
H153        H  0.35725948  0.61905715  0.15601936     0.07500
H154        H  0.42695701  0.54936140  0.16074044     0.02400
H155        H  0.39237475  0.51973905  0.14805837     0.02800
H156        H  0.39837141  0.53019146  0.18868825     0.06300
H157        H  0.35386913  0.50900226  0.06304713     0.05300
H158        H  0.35538931  0.53886833  0.08038969    -0.00400
H159        H  0.35708918  0.51360611  0.10498445     0.01000
H160        H  0.49404416  0.61898163  0.07017905     0.04700
H161        H  0.49673929  0.59259932  0.05048650     0.06600
H162        H  0.49772452  0.59395668  0.09265493     0.07500
C163        C  0.32121639  0.70849635  0.32908812    -0.22100
C164        C  0.33637091  0.71144140  0.35647229     0.09900
C165        C  0.34841430  0.69533369  0.36025288     0.10300
C166        C  0.34542701  0.67690654  0.33616340    -0.17000
C167        C  0.32998538  0.67364507  0.30881820    -0.27500
C168        C  0.31774715  0.68969789  0.30519146     0.18600
C169        C  0.33905223  0.73121613  0.38118418     0.12600
C170        C  0.36400216  0.69727130  0.38990778    -0.11800
H171        H  0.35468137  0.66453229  0.33894847     0.12800
C172        C  0.30178217  0.68780030  0.27584457    -0.22600
H173        H  0.31205884  0.72097882  0.32647629     0.08500
C174        C  0.36302670  0.75957506  0.38273410     0.04800
C175        C  0.36580584  0.77669693  0.40824445    -0.19900
C176        C  0.34496505  0.76613030  0.43198888    -0.12200
C177        C  0.31985759  0.73837938  0.42895080     0.13500
C178        C  0.31743441  0.72116128  0.40379005    -0.22600
C179        C  0.38583821  0.77151818  0.35775284    -0.05700
H180        H  0.38496365  0.79796302  0.41043262     0.15100
C181        C  0.29521539  0.72631453  0.45169681    -0.15800
H182        H  0.29867401  0.69957919  0.40198173     0.09400
H183        H  0.31557301  0.69278058  0.25488812     0.07200
H184        H  0.29520167  0.70307971  0.27631968     0.08400
H185        H  0.28215119  0.66607928  0.27357350     0.07500
H186        H  0.34942840  0.69087902  0.41039818     0.02400
H187        H  0.38261640  0.71945008  0.39330839     0.02800
H188        H  0.37188849  0.68306877  0.38910591     0.06300
H189        H  0.40310599  0.79408054  0.36247929     0.05300
H190        H  0.37634264  0.77058880  0.33455241    -0.00400
H191        H  0.39550533  0.75893210  0.35669178     0.01000
H192        H  0.27538027  0.71950418  0.43858819     0.04700
H193        H  0.29547786  0.70708792  0.96450793     0.06600
H194        H  0.29807280  0.74199745  0.46951061     0.07500
C195        C  0.37707108  0.74319464  0.07497097    -0.22100
C196        C  0.35551954  0.73517576  0.09717825     0.09900
C197        C  0.33850352  0.74634056  0.09509785     0.10300
C198        C  0.34247518  0.76419998  0.06971274    -0.17000
C199        C  0.36311192  0.77108991  0.04655273    -0.27500
C200        C  0.38124221  0.76119226  0.04975473     0.18600
C201        C  0.35048938  0.71423774  0.12175646     0.12600
C202        C  0.31586533  0.73893460  0.11933156    -0.11800
H203        H  0.32866291  0.77186688  0.06720105     0.12800
C204        C  0.40510442  0.76914388  0.02699778    -0.22600
H205        H  0.39040903  0.73493079  0.07703381     0.08500
C206        C  0.33060377  0.68473785  0.11724506     0.04800
C207        C  0.32586001  0.66565019  0.14150204    -0.19900
C208        C  0.34109791  0.67538914  0.16975578    -0.12200
C209        C  0.36151242  0.70490321  0.17396630     0.13500
C210        C  0.36588435  0.72402446  0.14986762    -0.22600
C211        C  0.31453541  0.67344936  0.08679085    -0.05700
H212        H  0.31033262  0.64301115  0.13837103     0.15100
C213        C  0.37794026  0.71638049  0.20420979    -0.15800
H214        H  0.38118764  0.74671878  0.15299612     0.09400
H215        H  0.40098317  0.74965917  0.01519846     0.07200
H216        H  0.42555047  0.77925051  0.04002133     0.08400
H217        H  0.40547481  0.78345217  0.50766159     0.07500
H218        H  0.32582909  0.74598582  0.14288625     0.02400
H219        H  0.29991818  0.71554901  0.11983890     0.02800
H220        H  0.30448191  0.74947231  0.11420048     0.06300
H221        H  0.29995818  0.64983068  0.08712608     0.05300
H222        H  0.32984785  0.67960896  0.06708196    -0.00400
H223        H  0.30156811  0.68240501  0.08247589     0.01000
H224        H  0.39208027  0.74003088  0.20393208     0.04700
H225        H  0.39154193  0.70804777  0.20787044     0.06600
H226        H  0.36290352  0.70986627  0.22427240     0.07500
C227        C  0.18309574  0.46859081  0.08107409    -0.22100
C228        C  0.18181266  0.48836640  0.09952599     0.09900
C229        C  0.16049287  0.49366829  0.09381747     0.10300
C230        C  0.14148983  0.47979871  0.06881112    -0.17000
C231        C  0.14346357  0.46084920  0.04943798    -0.27500
C232        C  0.16397482  0.45449275  0.05625660     0.18600
C233        C  0.20373638  0.50422998  0.12388737     0.12600
C234        C  0.15817202  0.51431646  0.11380363    -0.11800
H235        H  0.12580710  0.48466493  0.06352136     0.12800
C236        C  0.16618652  0.43290480  0.03800072    -0.22600
H237        H  0.19931545  0.46435348  0.08588794     0.08500
C238        C  0.20136289  0.49256607  0.15398559     0.04800
C239        C  0.22209486  0.50915577  0.17670205    -0.19900
C240        C  0.24500959  0.53708547  0.16986424    -0.12200
C241        C  0.24812007  0.54816806  0.13912749     0.13500
C242        C  0.22719305  0.53165378  0.11663248    -0.22600
C243        C  0.17665417  0.46293364  0.16223654    -0.05700
H244        H  0.21994262  0.50062258  0.20018635     0.15100
C245        C  0.27352494  0.57683273  0.12892006    -0.18800
H246        H  0.22917665  0.54020887  0.09318103     0.09400
H247        H  0.16445078  0.41666184  0.05443513     0.07200
H248        H  0.18714664  0.44372334  0.02583283     0.08400
H249        H  0.14907495  0.42139523  0.02030234     0.07500
H250        H  0.17811818  0.53590491  0.11197365     0.02400
H251        H  0.15463085  0.50720093  0.13872632     0.02800
H252        H  0.14015183  0.51580229  0.10632438     0.06300
H253        H  0.17787125  0.45721998  0.18692717     0.05300
H254        H  0.17664372  0.44721997  0.14655951    -0.00400
H255        H  0.15629802  0.46146432  0.15930702     0.01000
H256        H  0.28374849  0.57403364  0.10821348     0.04700
H257        H  0.29014104  0.58756800  0.14726187     0.06600
H258        H  0.26639837  0.59097773  0.12219472     0.07500
C259        C  0.17647265  0.46956256  0.39574311    -0.22100
C260        C  0.17656440  0.49198446  0.38130140     0.09900
C261        C  0.15701019  0.49863998  0.39117187     0.10300
C262        C  0.13855332  0.48343147  0.41633937    -0.17000
C263        C  0.13954846  0.46204277  0.43195612    -0.27500
C264        C  0.15819203  0.45446620  0.42101482     0.18600
C265        C  0.19827247  0.50907272  0.35693350     0.12600
C266        C  0.15653198  0.52258150  0.37608352    -0.11800
H267        H  0.12433461  0.48926061  0.42496982     0.12800
C268        C  0.15948171  0.43079997  0.43560525    -0.22600
H269        H  0.19128446  0.46428425  0.38771190     0.08500
C270        C  0.22695188  0.52944364  0.36506871     0.04800
C271        C  0.24697031  0.54484494  0.34118097    -0.19900
C272        C  0.23880012  0.54051155  0.30952543    -0.12200
C273        C  0.21004248  0.52020965  0.30137730     0.13500
C274        C  0.19010449  0.50472416  0.32528977    -0.22600
C275        C  0.23631658  0.53513478  0.39892338    -0.05700
H276        H  0.26908588  0.56040605  0.34718536     0.15100
C277        C  0.19980905  0.51372516  0.26780551    -0.15800
H278        H  0.16806330  0.48893514  0.31921615     0.09400
H279        H  0.18099452  0.43971942  0.44571993     0.07200
H280        H  0.15544498  0.41500011  0.41726839     0.08400
H281        H  0.14338759  0.41923512  0.45442432     0.07500
H282        H  0.15126496  0.51802922  0.35076334     0.02400
H283        H  0.17775335  0.54288341  0.37852679     0.02800
H284        H  0.14036716  0.52535950  0.38715116     0.06300
H285        H  0.25933955  0.55222684  0.40110921     0.05300
H286        H  0.23269770  0.51553184  0.41000137    -0.00400
H287        H  0.22396082  0.54193562  0.41189728     0.01000
H288        H  0.19053789  0.49085219  0.26290507     0.04700
H289        H  0.21699233  0.52643841  0.25038138     0.06600
H290        H  0.18308756  0.51813788  0.26421892     0.07500
C291        C  0.53558028  0.52320026  0.01238076    -0.22100
C292        C  0.52523868  0.49697429  0.49572283     0.09900
C293        C  0.50068631  0.48579413  0.47686880     0.10300
C294        C  0.48613974  0.49948411  0.47635831    -0.17000
C295        C  0.49642435  0.52590757  0.99327280    -0.27500
C296        C  0.52168503  0.53751897  0.01123855     0.18600
C297        C  0.54056781  0.48258493  0.49831826     0.12600
C298        C  0.49002775  0.45962846  0.45706470    -0.11800
H299        H  0.46679299  0.49045280  0.46263979     0.12800
C300        C  0.53522676  0.56540209  0.02853920    -0.22600
H301        H  0.55443955  0.53160083  0.02683749     0.08500
C302        C  0.56712776  0.49356778  0.48348497     0.04800
C303        C  0.58066335  0.47900059  0.48670861    -0.19900
C304        C  0.56734122  0.45370190  0.00298905    -0.12200
C305        C  0.53981217  0.44213043  0.01591905     0.13500
C306        C  0.52730690  0.45770880  0.01372729    -0.22600
C307        C  0.58089542  0.52030543  0.46379321    -0.05700
H308        H  0.60128531  0.48762459  0.47573383     0.15100
C309        C  0.52231789  0.41293733  0.03079099    -0.15800
H310        H  0.50639513  0.44906178  0.02397765     0.09400
H311        H  0.55776569  0.57982204  0.02083565     0.07200
H312        H  0.53476721  0.56155888  0.05421246     0.08400
H313        H  0.52466226  0.57674761  0.02388953     0.07500
H314        H  0.48388946  0.44103789  0.47229033     0.02400
H315        H  0.50706220  0.46336969  0.44054298     0.02800
H316        H  0.47106241  0.45426989  0.44302283     0.06300
H317        H  0.60125215  0.52546426  0.45314553     0.05300
H318        H  0.58560370  0.53863535  0.47852357    -0.00400
H319        H  0.56630673  0.51747630  0.44446590     0.01000
H320        H  0.51890316  0.41497283  0.05608109     0.04700
H321        H  0.53219955  0.40070187  0.02858804     0.06600
H322        H  0.50125578  0.40024361  0.01897959     0.07500
C323        C  0.63556270  0.35489561  0.13451945    -0.22100
C324        C  0.62280294  0.36925655  0.14353276     0.09900
C325        C  0.61466941  0.36825407  0.17507101     0.10300
C326        C  0.61921792  0.35254475  0.19696655    -0.17000
C327        C  0.63175306  0.33791531  0.18797695    -0.27500
C328        C  0.64004354  0.33905841  0.15631499     0.18600
C329        C  0.61666777  0.38370704  0.11898345     0.12600
C330        C  0.60134718  0.38384341  0.18556901    -0.11800
H331        H  0.61297639  0.35166063  0.22127081     0.12800
C332        C  0.65235532  0.32290318  0.14429723    -0.22600
H333        H  0.64139888  0.35547426  0.11010543     0.08500
C334        C  0.63836434  0.41009856  0.10602875     0.04800
C335        C  0.63206722  0.42120828  0.08020650    -0.19900
C336        C  0.60459460  0.40645332  0.06726107    -0.12200
C337        C  0.58259544  0.38056783  0.08109843     0.13500
C338        C  0.58892963  0.36959625  0.10695017    -0.22600
C339        C  0.66813964  0.42624007  0.11920462    -0.05700
H340        H  0.64884783  0.44095321  0.06932403     0.15100
C341        C  0.55260725  0.36336083  0.06844572    -0.15800
H342        H  0.57235520  0.34930433  0.11705636     0.09400
H343        H  0.67407269  0.33815730  0.13471938     0.07200
H344        H  0.63862596  0.30829784  0.12521518     0.08400
H345        H  0.65380037  0.30972987  0.16254073     0.07500
H346        H  0.58094311  0.37546249  0.17297393     0.02400
H347        H  0.61608289  0.40695407  0.18039278     0.02800
H348        H  0.59677849  0.38126503  0.21120473     0.06300
H349        H  0.68240303  0.44673391  0.10659647     0.05300
H350        H  0.67736555  0.41330229  0.11702276    -0.00400
H351        H  0.66755416  0.43100823  0.14439434     0.01000
H352        H  0.54699499  0.34179619  0.06181558     0.04700
H353        H  0.54971269  0.37308643  0.04741487     0.06600
H354        H  0.53753734  0.36116642  0.08687652     0.07500
C355        C  0.64413679  0.39927059  0.42187247    -0.22100
C356        C  0.62171563  0.38184128  0.40128925     0.09900
C357        C  0.59520997  0.37859387  0.40499967     0.10300
C358        C  0.59130118  0.39197706  0.43023870    -0.17000
C359        C  0.61338776  0.40866920  0.45165288    -0.27500
C360        C  0.64050286  0.41318744  0.44675158     0.18600
C361        C  0.62616234  0.36655397  0.37640953     0.12600
C362        C  0.57102367  0.36077572  0.38251098    -0.11800
H363        H  0.57055007  0.38849656  0.43397040     0.12800
C364        C  0.66611693  0.43278580  0.46686410    -0.22600
H365        H  0.66460446  0.40200337  0.41848568     0.08500
C366        C  0.64059049  0.38026318  0.34831613     0.04800
C367        C  0.64317053  0.36441013  0.32489335    -0.19900
C368        C  0.63177375  0.33524827  0.32913567    -0.12200
C369        C  0.61860717  0.32192448  0.35812539     0.13500
C370        C  0.61551856  0.33771696  0.38114669    -0.22600
C371        C  0.65265290  0.41139065  0.34285216    -0.05700
H372        H  0.65351223  0.37466529  0.30285403     0.15100
C373        C  0.60857784  0.29163616  0.36630775    -0.15800
H374        H  0.60502414  0.32757165  0.40318196     0.09400
H375        H  0.68394436  0.44882714  0.45165062     0.07200
H376        H  0.67289527  0.42022998  0.47949446     0.08400
H377        H  0.66206783  0.44472325  0.48428164     0.07500
H378        H  0.56488237  0.33836069  0.38314567     0.02400
H379        H  0.57776747  0.36933981  0.35827694     0.02800
H380        H  0.55189245  0.36086213  0.38856536     0.06300
H381        H  0.66290365  0.41865067  0.31936751     0.05300
H382        H  0.66899140  0.42441907  0.36092433    -0.00400
H383        H  0.63531783  0.41515606  0.34430822     0.01000
H384        H  0.61824938  0.29141345  0.38895981     0.04700
H385        H  0.61483945  0.28154983  0.34885002     0.06600
H386        H  0.58500653  0.27847869  0.36890701     0.07500
C387        C  0.38209927  0.89805906  0.01254644    -0.22100
C388        C  0.40541606  0.91744601  0.49312428     0.09900
C389        C  0.41435391  0.90588223  0.47020964     0.10300
C390        C  0.40128795  0.87621681  0.46896136    -0.17000
C391        C  0.38019568  0.85740268  0.98969761    -0.27500
C392        C  0.36864751  0.86840252  0.01009821     0.18600
C393        C  0.42029255  0.94878258  0.49735767     0.12600
C394        C  0.43762769  0.92481692  0.44702243    -0.11800
H395        H  0.40896697  0.86748593  0.45221301     0.12800
C396        C  0.34189014  0.84956740  0.02911755    -0.22600
H397        H  0.37379578  0.90648038  0.02889490     0.08500
C398        C  0.40773179  0.96362276  0.48853141     0.04800
C399        C  0.42304593  0.99332487  0.49279764    -0.19900
C400        C  0.45130422  0.00801941  0.00769209    -0.12200
C401        C  0.46277679  0.99263297  0.01873289     0.13500
C402        C  0.44709346  0.96293761  0.01491691    -0.22600
C403        C  0.37850308  0.94825891  0.47397602    -0.05700
H404        H  0.41355646  0.00483350  0.48592712     0.15100
C405        C  0.49198660  0.00674896  0.03327023    -0.15800
H406        H  0.45587053  0.95117629  0.02341239     0.09400
H407        H  0.32616591  0.85497545  0.02354022     0.07200
H408        H  0.34699567  0.85316162  0.05456425     0.08400
H409        H  0.33148452  0.82658727  0.02407547     0.07500
H410        H  0.45794236  0.93943926  0.45954720     0.02400
H411        H  0.43156084  0.93754643  0.43348161     0.02800
H412        H  0.44134613  0.91224043  0.43007693     0.06300
H413        H  0.37221818  0.96317846  0.46766006     0.05300
H414        H  0.36242128  0.93230015  0.49075488    -0.00400
H415        H  0.37826406  0.93727390  0.45223884     0.01000
H416        H  0.48992025  0.99919916  0.05788030     0.04700
H417        H  0.50404103  0.03029659  0.03333727     0.06600
H418        H  0.50488511  0.00092087  0.01972653     0.07500
C419        C  0.53574613  0.16326997  0.35210723    -0.22100
C420        C  0.55015765  0.16535651  0.37985286     0.09900
C421        C  0.57940340  0.18693818  0.38286836     0.10300
C422        C  0.59373439  0.20582823  0.35777385    -0.17000
C423        C  0.57943000  0.20378226  0.32986517    -0.27500
C424        C  0.54999132  0.18228238  0.32700793     0.18600
C425        C  0.53427916  0.14449522  0.40538670     0.12600
C426        C  0.59539694  0.19017110  0.41264543    -0.11800
H427        H  0.61624869  0.22238729  0.35997526     0.12800
C428        C  0.53374296  0.17851492  0.29724291    -0.22600
H429        H  0.51328779  0.14650958  0.35005915     0.08500
C430        C  0.51614268  0.14712233  0.42578382     0.04800
C431        C  0.50200383  0.12712580  0.45005642    -0.19900
C432        C  0.50603977  0.10490640  0.45474779    -0.12200
C433        C  0.52470844  0.10266818  0.43456456     0.13500
C434        C  0.53820065  0.12225025  0.40977657    -0.22600
C435        C  0.51251461  0.17156024  0.42254644    -0.05700
H436        H  0.48824071  0.12921458  0.46600152     0.15100
C437        C  0.53188615  0.08089052  0.44009931    -0.15800
H438        H  0.55252062  0.12071442  0.39416816     0.09400
H439        H  0.51139991  0.15964027  0.29861589     0.07200
H440        H  0.54423878  0.17547635  0.27700268     0.08400
H441        H  0.53295375  0.19750171  0.29305098     0.07500
H442        H  0.59521034  0.17064614  0.41698390     0.02400
H443        H  0.58517084  0.19367399  0.43280309     0.02800
H444        H  0.61799332  0.20855009  0.41127351     0.06300
H445        H  0.49809712  0.17081754  0.44091909     0.05300
H446        H  0.50328447  0.17076554  0.39922727    -0.00400
H447        H  0.53356278  0.19209181  0.42482627     0.01000
H448        H  0.51277255  0.05905358  0.43666841     0.04700
H449        H  0.54009110  0.08299697  0.46436281     0.06600
H450        H  0.54853272  0.08376388  0.42350902     0.07500
C451        C  0.55406841  0.18593710  0.13881687    -0.22100
C452        C  0.54035485  0.15727797  0.14786979     0.09900
C453        C  0.54341222  0.15040845  0.17881699     0.10300
C454        C  0.56063629  0.17245956  0.19995788    -0.17000
C455        C  0.57494721  0.20121267  0.19080895    -0.27500
C456        C  0.57163103  0.20809284  0.15976210     0.18600
C457        C  0.52567034  0.13507674  0.12347957     0.12600
C458        C  0.52865523  0.11984020  0.18939177    -0.11800
H459        H  0.56307278  0.16723544  0.22378092     0.12800
C460        C  0.58740734  0.23822184  0.14721893    -0.22600
H461        H  0.55198475  0.19102709  0.11478809     0.08500
C462        C  0.49759109  0.12463958  0.11375220     0.04800
C463        C  0.48601377  0.10585132  0.08812139    -0.19900
C464        C  0.50206693  0.09755193  0.07212546    -0.12200
C465        C  0.52980914  0.10724993  0.08271743     0.13500
C466        C  0.54118982  0.12580775  0.10835454    -0.22600
C467        C  0.48023907  0.13384627  0.12998179    -0.05700
H468        H  0.46487668  0.09859211  0.07966458     0.15100
C469        C  0.54833037  0.09920444  0.06689558    -0.15800
H470        H  0.56275973  0.13388321  0.11599642     0.09400
H471        H  0.57185001  0.24349899  0.14028846     0.07200
H472        H  0.60000531  0.24002357  0.12618151     0.08400
H473        H  0.60258757  0.25439171  0.16419639     0.07500
H474        H  0.53612488  0.10876293  0.17506525     0.02400
H475        H  0.50524458  0.10885582  0.18654468     0.02800
H476        H  0.53306726  0.11822000  0.21448111     0.06300
H477        H  0.45865613  0.12362035  0.11951675     0.05300
H478        H  0.49116531  0.15731400  0.12792791    -0.00400
H479        H  0.47771296  0.12783559  0.15523143     0.01000
H480        H  0.56800061  0.11871638  0.05777422     0.04700
H481        H  0.53761456  0.08430165  0.04701755     0.06600
H482        H  0.55439748  0.08871973  0.08425159     0.07500
C483        C  0.93982910  0.34573536  0.48478477    -0.22100
C484        C  0.95820198  0.36953999  0.00315168     0.09900
C485        C  0.94660819  0.38054879  0.02318729     0.10300
C486        C  0.91697065  0.36737807  0.02420301    -0.17000
C487        C  0.89807997  0.34228913  0.50680049    -0.27500
C488        C  0.91006180  0.33163374  0.48649236     0.18600
C489        C  0.98947838  0.38364801  0.00001577     0.12600
C490        C  0.96545273  0.40598268  0.04379810    -0.11800
H491        H  0.90817376  0.37638536  0.03889287     0.12800
C492        C  0.89237811  0.30493281  0.46724139    -0.22600
H493        H  0.94907727  0.33813860  0.46863637     0.08500
C494        C  0.00369536  0.37186350  0.01335048     0.04800
C495        C  0.03345079  0.38654081  0.01025093    -0.19900
C496        C  0.04887186  0.41322360  0.49451058    -0.12200
C497        C  0.03446260  0.42555125  0.48308185     0.13500
C498        C  0.00471032  0.41043094  0.48612365    -0.22600
C499        C  0.98760158  0.34423666  0.03150892    -0.05700
H500        H  0.04449362  0.37764236  0.02053850     0.15100
C501        C  0.05037231  0.45509466  0.46896361    -0.15800
H502        H  0.99348200  0.41967241  0.47734760     0.09400
H503        H  0.89903896  0.29011619  0.47242238     0.07200
H504        H  0.89582670  0.31045050  0.44183681     0.08400
H505        H  0.86928424  0.29316206  0.47251751     0.07500
H506        H  0.98003242  0.42497540  0.02912416     0.02400
H507        H  0.97823176  0.40142710  0.05946761     0.02800
H508        H  0.95280241  0.41119681  0.05878332     0.06300
H509        H  0.00211069  0.33848226  0.04110601     0.05300
H510        H  0.97197471  0.32667267  0.01595678    -0.00400
H511        H  0.97612408  0.34619596  0.05150511     0.01000
H512        H  0.06100209  0.45569549  0.44677201     0.04700
H513        H  0.06659403  0.47059647  0.48583902     0.06600
H514        H  0.03583667  0.46201796  0.46336799     0.07500
C515        C  0.73113214  0.30867204  0.38180844    -0.22100
C516        C  0.75070330  0.30112872  0.37673085     0.09900
C517        C  0.75119596  0.28951117  0.34763717     0.10300
C518        C  0.73211931  0.28583355  0.32400702    -0.17000
C519        C  0.71281336  0.29380730  0.32876634    -0.27500
C520        C  0.71212920  0.30520489  0.35811820     0.18600
C521        C  0.77024054  0.30515735  0.40242119     0.12600
C522        C  0.77207473  0.28131915  0.34147872    -0.11800
H523        H  0.73255245  0.27708473  0.30151305     0.12800
C524        C  0.69081371  0.31276656  0.36497804    -0.22600
H525        H  0.73075196  0.31725907  0.40443360     0.08500
C526        C  0.79561384  0.33191279  0.40819122     0.04800
C527        C  0.81315840  0.33474469  0.43329894    -0.19900
C528        C  0.80578248  0.31138237  0.45263854    -0.12200
C529        C  0.78085017  0.28430872  0.44597226     0.13500
C530        C  0.76323463  0.28165955  0.42114675    -0.22600
C531        C  0.80396660  0.35740963  0.38798023    -0.05700
H532        H  0.83221926  0.35545211  0.43850742     0.15100
C533        C  0.77237014  0.25772224  0.46422462    -0.15800
H534        H  0.74389932  0.26105284  0.41624582     0.09400
H535        H  0.69479631  0.33051788  0.34951639     0.07200
H536        H  0.69225267  0.31974495  0.38969315     0.08400
H537        H  0.66882692  0.29388710  0.36107617     0.07500
H538        H  0.76835133  0.26450674  0.35834661     0.02400
H539        H  0.79420297  0.30025941  0.34427816     0.02800
H540        H  0.76989700  0.27295294  0.31730686     0.06300
H541        H  0.82458558  0.37665358  0.39551379     0.05300
H542        H  0.78736564  0.36219983  0.38950635    -0.00400
H543        H  0.80618562  0.35289519  0.36314912     0.01000
H544        H  0.75170554  0.24942438  0.47632266     0.04700
H545        H  0.78904313  0.26129302  0.98198881     0.06600
H546        H  0.76987958  0.24122241  0.44778191     0.07500
C547        C  0.79166553  0.32937690  0.10775683    -0.22100
C548        C  0.77438615  0.30167535  0.11991857     0.09900
C549        C  0.77610237  0.27957421  0.10726668     0.10300
C550        C  0.79431328  0.28548651  0.08165834    -0.17000
C551        C  0.81069457  0.31295753  0.06863437    -0.27500
C552        C  0.80982840  0.33533297  0.08217146     0.18600
C553        C  0.75324160  0.29609256  0.14435810     0.12600
C554        C  0.75837362  0.24976888  0.12045543    -0.11800
H555        H  0.79497422  0.26842346  0.07095668     0.12800
C556        C  0.82698422  0.36542066  0.06956823    -0.22600
H557        H  0.79026597  0.34627456  0.11766828     0.08500
C558        C  0.76111168  0.30311995  0.17608889     0.04800
C559        C  0.74061980  0.29937304  0.19790260    -0.19900
C560        C  0.71245259  0.28841522  0.18864634    -0.12200
C561        C  0.70445978  0.28094910  0.15689014     0.13500
C562        C  0.72506731  0.28496063  0.13510597    -0.22600
C563        C  0.79099607  0.31429240  0.18686453    -0.05700
H564        H  0.74650436  0.30478312  0.22236065     0.15100
C565        C  0.67481951  0.26965298  0.14494643    -0.15800
H566        H  0.71925832  0.27981361  0.11058962     0.09400
H567        H  0.84093138  0.38015330  0.08844647     0.07200
H568        H  0.81232910  0.37160550  0.06174204     0.08400
H569        H  0.84079603  0.36819465  0.04941689     0.07500
H570        H  0.73536256  0.24125102  0.11805732     0.02400
H571        H  0.76348635  0.25001452  0.14570538     0.02800
H572        H  0.76253067  0.23512368  0.10800573     0.06300
H573        H  0.79342247  0.31827110  0.21258611     0.05300
H574        H  0.80637836  0.33466379  0.17464265    -0.00400
H575        H  0.79630269  0.29848900  0.18142301     0.01000
H576        H  0.67591245  0.28409542  0.12633935     0.04700
H577        H  0.66011602  0.26797250  0.16345049     0.06600
H578        H  0.66556291  0.24813837  0.13475418     0.07500
C579        C  0.86744278  0.33115290  0.00754095     0.03500
C580        C  0.85305397  0.32494987  0.53705768    -0.12700
C581        C  0.82442925  0.31601973  0.53840112     0.01000
C582        C  0.80930332  0.31162633  0.51068768    -0.11200
C583        C  0.82275537  0.31645847  0.98140288     0.03500
C584        C  0.85186889  0.32688421  0.97982053    -0.10600
H585        H  0.86454500  0.32813621  0.55873922     0.09100
H586        H  0.78710874  0.30469021  0.51189428     0.06600
H587        H  0.86230844  0.33151935  0.95711240     0.06400
C588        C  0.46620833  0.03993856  0.50835153     0.03500
C589        C  0.47348176  0.05315908  0.53801081    -0.12700
C590        C  0.49054204  0.08300942  0.54012466     0.01000
C591        C  0.50029517  0.09953506  0.51270231    -0.11200
C592        C  0.49413872  0.08619293  0.98462515     0.03500
C593        C  0.47628151  0.05632894  0.98279230    -0.10600
H594        H  0.46679819  0.04030231  0.55922517     0.09100
H595        H  0.51437450  0.12254296  0.51449687     0.06600
H596        H  0.47011039  0.04606106  0.96005254     0.06400
C597        C  0.58350929  0.43914072  0.50624240     0.03500
C598        C  0.59101380  0.43191711  0.97805129    -0.12700
C599        C  0.60431997  0.41704314  0.97993886     0.01000
C600        C  0.61078824  0.41009412  0.50984375    -0.11200
C601        C  0.60240721  0.41696433  0.53736481     0.03500
C602        C  0.58921070  0.43191460  0.53567922    -0.10600
H603        H  0.58683490  0.43745527  0.95522795     0.09100
H604        H  0.62014737  0.39771592  0.51130347     0.06600
H605        H  0.58258894  0.43706434  0.55709739     0.06400
Fe606      Fe  0.64513791  0.24428451  0.75870507     1.65800
Fe607      Fe  0.60135144  0.26779251  0.75787279     1.73200
Fe608      Fe  0.67314951  0.31522102  0.75712842     1.54400
O609        O  0.68987762  0.30874197  0.79639326    -0.81300
O610        O  0.61210057  0.30130061  0.72771861    -0.79600
O611        O  0.68018765  0.26520454  0.78843428    -0.83800
O612        O  0.67085882  0.25927547  0.71956399    -0.78700
O613        O  0.65470196  0.32970241  0.78686720    -0.80500
O614        O  0.58946794  0.24165252  0.71937924    -0.83200
C615        C  0.69186476  0.28430222  0.71333848     0.97600
C616        C  0.69276986  0.28863751  0.80333214     1.05000
O617        O  0.63988289  0.27577254  0.75769994    -1.12200
O618        O  0.58504836  0.23323754  0.78833862    -0.74600
O619        O  0.62003162  0.22696957  0.79802277    -0.78100
O620        O  0.69660819  0.30624650  0.72772914    -0.78800
C621        C  0.59557400  0.22191548  0.80387405     0.96500
O622        O  0.61066195  0.21876389  0.72932193    -0.76800
O623        O  0.61020763  0.29308341  0.79641858    -0.82000
C624        C  0.63422247  0.31970216  0.71242210     0.99100
C625        C  0.63170442  0.31774615  0.80268894     1.05000
O626        O  0.65881043  0.32498235  0.71796937    -0.77600
C627        C  0.59301343  0.22168756  0.71409268     1.03300
C628        C  0.08078165  0.42792846  0.99306191     0.03500
C629        C  0.09522043  0.43504783  0.96407408    -0.12700
C630        C  0.12510138  0.45078831  0.96312170     0.01000
C631        C  0.13991025  0.45862141  0.48993343    -0.11200
C632        C  0.12617091  0.45051177  0.51917659     0.03500
C633        C  0.09633545  0.43557871  0.52051799    -0.10600
H634        H  0.08331418  0.42864239  0.94229150     0.09100
H635        H  0.16302395  0.47126811  0.48883588     0.06600
H636        H  0.08564514  0.42993229  0.54314354     0.06400
C637        C  0.36875379  0.82694630  0.48983709     0.03500
C638        C  0.36928643  0.81380318  0.51783281    -0.12700
C639        C  0.36127910  0.78540579  0.51773745     0.01000
C640        C  0.35257642  0.77002707  0.48966666    -0.11200
C641        C  0.35390992  0.78263544  0.96116285     0.03500
C642        C  0.36206112  0.81118936  0.96128390    -0.10600
H643        H  0.37652432  0.82583309  0.53951826     0.09100
H644        H  0.34680355  0.74819279  0.48962619     0.06600
H645        H  0.36220072  0.82126087  0.93948378     0.06400
C646        C  0.47840933  0.53666635  0.49392842     0.03500
C647        C  0.46833843  0.54054156  0.52251731    -0.12700
C648        C  0.45142697  0.55169711  0.52257287     0.01000
C649        C  0.44399648  0.55822489  0.49409027    -0.11200
C650        C  0.45270504  0.55419432  0.96524740     0.03500
C651        C  0.47065769  0.54429213  0.96506899    -0.10600
H652        H  0.47348220  0.53474749  0.54457634     0.09100
H653        H  0.43052378  0.56640512  0.49407946     0.06600
H654        H  0.47768123  0.54082680  0.94284360     0.06400
Fe655      Fe  0.35709057  0.63163124  0.74297618     1.65800
Fe656      Fe  0.30690633  0.55952746  0.74469868     1.73200
Fe657      Fe  0.28612023  0.60586531  0.73651514     1.54400
O658        O  0.30219323  0.63602054  0.77163674    -0.81300
O659        O  0.27536284  0.54357060  0.71099093    -0.79600
O660        O  0.34872416  0.65370432  0.77506255    -0.83800
O661        O  0.35337237  0.65298403  0.70598076    -0.78700
O662        O  0.26013800  0.57533942  0.76983350    -0.80500
O663        O  0.33498377  0.56616528  0.70966222    -0.83200
C664        C  0.33316282  0.65346095  0.69378783     0.97600
C665        C  0.32672115  0.65317320  0.78328136     1.05000
O666        O  0.31676266  0.59908181  0.74146172    -1.12200
O667        O  0.33693659  0.56866479  0.77841208    -0.74600
O668        O  0.36728685  0.61567664  0.78044378    -0.78100
O669        O  0.30744734  0.63705451  0.70254770    -0.78800
C670        C  0.35847941  0.59083019  0.79001966     0.96500
O671        O  0.36936529  0.61280263  0.71067954    -0.76800
O672        O  0.27795843  0.54926613  0.78015742    -0.82000
C673        C  0.26371830  0.55332638  0.69483943     0.99100
C674        C  0.26030376  0.55606159  0.78516246     1.05000
O675        O  0.26708631  0.57705071  0.70049925    -0.77600
C676        C  0.35831782  0.58777817  0.69982507     1.03300
C677        C  0.40116272  0.54608437  0.90286050    -0.22100
C678        C  0.41848425  0.57083596  0.88496778     0.09900
C679        C  0.44784541  0.58899584  0.89182536     0.10300
C680        C  0.45905179  0.58243860  0.91738078    -0.17000
C681        C  0.44141240  0.55816463  0.93592305    -0.27500
C682        C  0.41231730  0.53940529  0.92816328     0.18600
C683        C  0.40492571  0.57726931  0.85961141     0.12600
C684        C  0.46720096  0.61518407  0.87225714    -0.11800
H685        H  0.48135178  0.59667322  0.92351815     0.12800
C686        C  0.39301991  0.51232643  0.94655746    -0.22600
H687        H  0.37870121  0.53216643  0.89722491     0.08500
C688        C  0.39573461  0.56125197  0.83165839     0.04800
C689        C  0.38061218  0.56626829  0.80951748    -0.19900
C690        C  0.37468575  0.58709712  0.81452490    -0.12200
C691        C  0.38426760  0.60346923  0.84236623     0.13500
C692        C  0.39921568  0.59822559  0.86469021    -0.22600
C693        C  0.40207794  0.53904089  0.82508152    -0.05700
H694        H  0.37351558  0.55396754  0.78799235     0.15100
C695        C  0.37777198  0.62552444  0.84925011    -0.15800
H696        H  0.40603011  0.61011209  0.88648922     0.09400
H697        H  0.37121154  0.49963078  0.93645809     0.07200
H698        H  0.39110309  0.51733849  0.97124682     0.08400
H699        H  0.40092995  0.49814872  0.44716554     0.07500
H700        H  0.46011548  0.63001011  0.87359794     0.02400
H701        H  0.46662637  0.60895882  0.84738693     0.02800
H702        H  0.48963662  0.62671892  0.88049666     0.06300
H703        H  0.39406094  0.52909737  0.80166222     0.05300
H704        H  0.39173222  0.52185597  0.84304739    -0.00400
H705        H  0.42548663  0.54904996  0.82557017     0.01000
H706        H  0.38560323  0.63519642  0.87281798     0.04700
H707        H  0.35436081  0.61550868  0.84863587     0.06600
H708        H  0.38830687  0.64296944  0.83159376     0.07500
C709        C  0.39053825  0.58913407  0.62107692    -0.22100
C710        C  0.39987234  0.57115168  0.62740276     0.09900
C711        C  0.39595380  0.55912190  0.65757748     0.10300
C712        C  0.38251421  0.56521202  0.68089019    -0.17000
C713        C  0.37320455  0.58324526  0.67465316    -0.27500
C714        C  0.37701897  0.59521958  0.64432186     0.18600
C715        C  0.41305755  0.56462003  0.60178555     0.12600
C716        C  0.40571366  0.53968231  0.66497963    -0.11800
H717        H  0.37923061  0.55587690  0.70410710     0.12800
C718        C  0.36616936  0.61348833  0.63529685    -0.22600
H719        H  0.39337640  0.59804780  0.59769342     0.08500
C720        C  0.39619402  0.54306495  0.57974637     0.04800
C721        C  0.40958296  0.53837228  0.55509895    -0.19900
C722        C  0.43940198  0.55496762  0.55180799    -0.12200
C723        C  0.45631209  0.57627785  0.57426466     0.13500
C724        C  0.44284720  0.58063583  0.59919298    -0.22600
C725        C  0.36411480  0.52533926  0.58201808    -0.05700
H726        H  0.39670535  0.52222360  0.53768412     0.15100
C727        C  0.48833198  0.59563281  0.57200131    -0.15800
H728        H  0.45562981  0.59717989  0.61627274     0.09400
H729        H  0.35102511  0.60344743  0.61539122     0.07200
H730        H  0.38434894  0.63489357  0.62781783     0.08400
H731        H  0.35479734  0.61632766  0.65463774     0.07500
H732        H  0.42912648  0.55128880  0.66145069     0.02400
H733        H  0.39483207  0.52086540  0.64923958     0.02800
H734        H  0.40083198  0.53194063  0.68967805     0.06300
H735        H  0.35421456  0.50929118  0.56293158     0.05300
H736        H  0.35601809  0.53931001  0.58021363    -0.00400
H737        H  0.35734833  0.51385787  0.60488702     0.01000
H738        H  0.49481851  0.61815840  0.57083090     0.04700
H739        H  0.49715038  0.59161129  0.55099060     0.06600
H740        H  0.49802219  0.59276207  0.59317058     0.07500
C741        C  0.32159298  0.70847099  0.82832638    -0.22100
C742        C  0.33717116  0.71152668  0.85538666     0.09900
C743        C  0.34920047  0.69538062  0.85878484     0.10300
C744        C  0.34572023  0.67676173  0.83469761    -0.17000
C745        C  0.32984360  0.67335548  0.80768567    -0.27500
C746        C  0.31764268  0.68947765  0.80441137     0.18600
C747        C  0.34011241  0.73125273  0.88032173     0.12600
C748        C  0.36535721  0.69752528  0.88802036    -0.11800
H749        H  0.35497309  0.66436500  0.83722538     0.12800
C750        C  0.30116423  0.68741724  0.77546747    -0.22600
H751        H  0.31243051  0.72097296  0.82601548     0.08500
C752        C  0.36384687  0.75975939  0.88151795     0.04800
C753        C  0.36694678  0.77680522  0.90727258    -0.19900
C754        C  0.34665189  0.76600705  0.93162787    -0.12200
C755        C  0.32174638  0.73804264  0.92900467     0.13500
C756        C  0.31904948  0.72091981  0.90361449    -0.22600
C757        C  0.38609532  0.77192130  0.85591574    -0.05700
H758        H  0.38594030  0.79821803  0.90911375     0.15100
C759        C  0.29754031  0.72562462  0.95238194    -0.15800
H760        H  0.30047979  0.69919608  0.90212709     0.09400
H761        H  0.31453091  0.69219080  0.75418832     0.07200
H762        H  0.29466863  0.70275951  0.77618117     0.08400
H763        H  0.28145445  0.66570608  0.77359686     0.07500
H764        H  0.35119757  0.69130375  0.90886732     0.02400
H765        H  0.38404674  0.71973241  0.89101586     0.02800
H766        H  0.37320841  0.68330121  0.88692953     0.06300
H767        H  0.40325817  0.79456575  0.86042562     0.05300
H768        H  0.37601224  0.77080662  0.83306630    -0.00400
H769        H  0.39600706  0.75958671  0.85426046     0.01000
H770        H  0.27733068  0.71831490  0.93982310     0.04700
H771        H  0.29244372  0.70750871  0.46396082     0.06600
H772        H  0.30035195  0.74123549  0.97026236     0.07500
C773        C  0.37544448  0.74258211  0.57430596    -0.22100
C774        C  0.35442487  0.73504876  0.59706040     0.09900
C775        C  0.33788947  0.74678009  0.59563134     0.10300
C776        C  0.34182684  0.76478655  0.57040670    -0.17000
C777        C  0.36188857  0.77117614  0.54669878    -0.27500
C778        C  0.37953654  0.76065459  0.54920827     0.18600
C779        C  0.34930712  0.71387965  0.62140004     0.12600
C780        C  0.31561720  0.73961788  0.62024586    -0.11800
H781        H  0.32833936  0.77287303  0.56839894     0.12800
C782        C  0.40276136  0.76795633  0.52578323    -0.22600
H783        H  0.38839081  0.73384120  0.57582635     0.08500
C784        C  0.33024183  0.68435950  0.61610206     0.04800
C785        C  0.32548030  0.66499628  0.64005336    -0.19900
C786        C  0.33987098  0.67452010  0.66881904    -0.12200
C787        C  0.35938887  0.70409062  0.67387256     0.13500
C788        C  0.36377755  0.72345457  0.65006817    -0.22600
C789        C  0.31491930  0.67337769  0.58520578    -0.05700
H790        H  0.31057697  0.64232495  0.63629778     0.15100
C791        C  0.37486715  0.71533132  0.70467990    -0.15800
H792        H  0.37842119  0.74617645  0.65383569     0.09400
H793        H  0.39786610  0.74824438  0.51383089     0.07200
H794        H  0.42342352  0.77762978  0.53827116     0.08400
H795        H  0.40774931  0.78449561  0.00872054     0.07500
H796        H  0.32585025  0.74647822  0.64369503     0.02400
H797        H  0.29945101  0.71626740  0.62067497     0.02800
H798        H  0.30446486  0.75046078  0.61554191     0.06300
H799        H  0.30079407  0.64972402  0.58497421     0.05300
H800        H  0.33070018  0.68024338  0.56586378    -0.00400
H801        H  0.30159534  0.68192909  0.58080195     0.01000
H802        H  0.38831878  0.73900692  0.70503767     0.04700
H803        H  0.38902603  0.70769137  0.70864057     0.06600
H804        H  0.35923859  0.70791343  0.72425224     0.07500
C805        C  0.18369273  0.46797614  0.57882772    -0.22100
C806        C  0.18217631  0.48719705  0.59807564     0.09900
C807        C  0.16043216  0.49205460  0.59329386     0.10300
C808        C  0.14133601  0.47845605  0.56832585    -0.17000
C809        C  0.14354598  0.46012489  0.54813049    -0.27500
C810        C  0.16439441  0.45405296  0.55409920     0.18600
C811        C  0.20422689  0.50298769  0.62233580     0.12600
C812        C  0.15768355  0.51189139  0.61429169    -0.11800
H813        H  0.12535040  0.48305595  0.56374449     0.12800
C814        C  0.16673451  0.43290206  0.53508245    -0.22600
H815        H  0.20020706  0.46402517  0.58296124     0.08500
C816        C  0.20276667  0.49070890  0.65178525     0.04800
C817        C  0.22319054  0.50740629  0.67472784    -0.19900
C818        C  0.24492170  0.53602791  0.66873934    -0.12200
C819        C  0.24732023  0.54772959  0.63849604     0.13500
C820        C  0.22665689  0.53111120  0.61581660    -0.22600
C821        C  0.17927712  0.46030549  0.65917914    -0.05700
H822        H  0.22165989  0.49836104  0.69776965     0.15100
C823        C  0.27172188  0.57721154  0.62896333    -0.18800
H824        H  0.22800217  0.54016150  0.59281232     0.09400
H825        H  0.16534513  0.41654174  0.55103895     0.07200
H826        H  0.18759215  0.44407467  0.52266785     0.08400
H827        H  0.14948724  0.42148359  0.51750830     0.07500
H828        H  0.17728782  0.53374253  0.61272517     0.02400
H829        H  0.15452836  0.50427964  0.63900407     0.02800
H830        H  0.13926642  0.51297712  0.60754291     0.06300
H831        H  0.18106256  0.45417840  0.68347563     0.05300
H832        H  0.18032288  0.44572674  0.64261918    -0.00400
H833        H  0.15824112  0.45751828  0.65687649     0.01000
H834        H  0.28227029  0.57573787  0.60768904     0.04700
H835        H  0.28839403  0.58802346  0.64723080     0.06600
H836        H  0.26346244  0.59061449  0.62338418     0.07500
C837        C  0.17985916  0.47165247  0.89869681    -0.22100
C838        C  0.17758530  0.49189664  0.88232422     0.09900
C839        C  0.15594028  0.49616701  0.89035473     0.10300
C840        C  0.13769167  0.48085039  0.91563167    -0.17000
C841        C  0.14083126  0.46158389  0.93309154    -0.27500
C842        C  0.16163568  0.45627919  0.92392280     0.18600
C843        C  0.19874466  0.50905608  0.85753336     0.12600
C844        C  0.15285590  0.51764007  0.87300053    -0.11800
H845        H  0.12183600  0.48498230  0.92282130     0.12800
C846        C  0.16517805  0.43463430  0.94019838    -0.22600
H847        H  0.19629105  0.46817073  0.89204122     0.08500
C848        C  0.22601227  0.53309409  0.86507993     0.04800
C849        C  0.24567122  0.54841118  0.84084501    -0.19900
C850        C  0.23849285  0.54019754  0.80941312    -0.12200
C851        C  0.21109881  0.51627722  0.80183645     0.13500
C852        C  0.19152008  0.50096635  0.82609428    -0.22600
C853        C  0.23425223  0.54254459  0.89865155    -0.05700
H854        H  0.26677408  0.56674679  0.84640689     0.15100
C855        C  0.20200570  0.50610413  0.76856165    -0.15800
H856        H  0.17053065  0.48246162  0.82049279     0.09400
H857        H  0.18657140  0.44557878  0.95127361     0.07200
H858        H  0.16331710  0.41912353  0.92267979     0.08400
H859        H  0.14878156  0.42230084  0.95852159     0.07500
H860        H  0.14845247  0.51176388  0.84779593     0.02400
H861        H  0.17285289  0.53915638  0.87504837     0.02800
H862        H  0.13507642  0.51862078  0.88258392     0.06300
H863        H  0.25624161  0.56194803  0.90035814     0.05300
H864        H  0.23329561  0.52535664  0.91260027    -0.00400
H865        H  0.21935130  0.54744968  0.90899842     0.01000
H866        H  0.19644671  0.48394950  0.76638209     0.04700
H867        H  0.21877958  0.51946719  0.75095288     0.06600
H868        H  0.18294156  0.50635019  0.76270769     0.07500
C869        C  0.53529942  0.52205894  0.51271707    -0.22100
C870        C  0.52577300  0.49844418  0.99481820     0.09900
C871        C  0.50155926  0.48771418  0.97549168     0.10300
C872        C  0.48700205  0.50138907  0.97520418    -0.17000
C873        C  0.49588391  0.52439859  0.49379829    -0.27500
C874        C  0.52137911  0.53633512  0.51139967     0.18600
C875        C  0.54079755  0.48373573  0.99751846     0.12600
C876        C  0.49125684  0.46204160  0.95493794    -0.11800
H877        H  0.46786346  0.49262066  0.96116823     0.12800
C878        C  0.53514859  0.56452288  0.52810853    -0.22600
H879        H  0.55442277  0.53078578  0.52679262     0.08500
C880        C  0.56783646  0.49493818  0.98376324     0.04800
C881        C  0.58089951  0.47989198  0.98688615    -0.19900
C882        C  0.56798512  0.45339698  0.50387617    -0.12200
C883        C  0.54083205  0.44196665  0.51783989     0.13500
C884        C  0.52793145  0.45717473  0.51559712    -0.22600
C885        C  0.58262178  0.52240916  0.96530105    -0.05700
H886        H  0.60182919  0.48858789  0.97669251     0.15100
C887        C  0.52404694  0.41324487  0.53384297    -0.15800
H888        H  0.50734259  0.44867472  0.52663076     0.09400
H889        H  0.55759430  0.57879402  0.52004036     0.07200
H890        H  0.53499688  0.56112602  0.55384981     0.08400
H891        H  0.52454888  0.57580725  0.52329313     0.07500
H892        H  0.48472148  0.44304347  0.96961447     0.02400
H893        H  0.50861856  0.46614350  0.93872506     0.02800
H894        H  0.47261927  0.45710560  0.94052540     0.06300
H895        H  0.60324076  0.52764716  0.95535756     0.05300
H896        H  0.58707154  0.54026382  0.98072409    -0.00400
H897        H  0.56883804  0.52055516  0.94552384     0.01000
H898        H  0.52169603  0.41604313  0.55922911     0.04700
H899        H  0.53384213  0.40096883  0.53128612     0.06600
H900        H  0.50250505  0.40015052  0.52315309     0.07500
C901        C  0.63568118  0.35354374  0.63458920    -0.22100
C902        C  0.62321963  0.36822189  0.64343673     0.09900
C903        C  0.61482620  0.36721747  0.67486150     0.10300
C904        C  0.61881760  0.35117701  0.69683537    -0.17000
C905        C  0.63109919  0.33627896  0.68802219    -0.27500
C906        C  0.63966234  0.33742905  0.65648009     0.18600
C907        C  0.61755110  0.38294900  0.61882694     0.12600
C908        C  0.60184567  0.38318302  0.68515714    -0.11800
H909        H  0.61242035  0.35031357  0.72107099     0.12800
C910        C  0.65181910  0.32106023  0.64471617    -0.22600
H911        H  0.64170746  0.35413229  0.61024921     0.08500
C912        C  0.63949563  0.40939005  0.60622878     0.04800
C913        C  0.63349104  0.42096447  0.58063366    -0.19900
C914        C  0.60610404  0.40654585  0.56749055    -0.12200
C915        C  0.58394659  0.38042699  0.58075118     0.13500
C916        C  0.58994685  0.36909253  0.60649695    -0.22600
C917        C  0.66921615  0.42508004  0.61952485    -0.05700
H918        H  0.65042832  0.44080559  0.57006807     0.15100
C919        C  0.55416382  0.36328941  0.56752411    -0.15800
H920        H  0.57322284  0.34870254  0.61626926     0.09400
H921        H  0.67367342  0.33618023  0.63540365     0.07200
H922        H  0.63820540  0.30657814  0.62549621     0.08400
H923        H  0.65290847  0.30774616  0.66306310     0.07500
H924        H  0.58163107  0.37516943  0.67230500     0.02400
H925        H  0.61692236  0.40627642  0.68013878     0.02800
H926        H  0.59701885  0.38054986  0.71073528     0.06300
H927        H  0.68371141  0.44565878  0.60716508     0.05300
H928        H  0.67817334  0.41191660  0.61709729    -0.00400
H929        H  0.66862375  0.42962505  0.64479012     0.01000
H930        H  0.54870307  0.34179654  0.56079581     0.04700
H931        H  0.55158523  0.37313297  0.54639740     0.06600
H932        H  0.53878595  0.36090566  0.58565323     0.07500
C933        C  0.64182764  0.39803639  0.92097468    -0.22100
C934        C  0.61929345  0.38044405  0.90056971     0.09900
C935        C  0.59270992  0.37697253  0.90462706     0.10300
C936        C  0.58887633  0.39033691  0.92997068    -0.17000
C937        C  0.61109556  0.40719655  0.95118713    -0.27500
C938        C  0.63824162  0.41187520  0.94599852     0.18600
C939        C  0.62365732  0.36503587  0.87571038     0.12600
C940        C  0.56837090  0.35894996  0.88238543    -0.11800
H941        H  0.56811068  0.38676726  0.93391224     0.12800
C942        C  0.66394208  0.43157348  0.96595014    -0.22600
H943        H  0.66233863  0.40091424  0.91737427     0.08500
C944        C  0.63792617  0.37856281  0.84747590     0.04800
C945        C  0.64074161  0.36265544  0.82429965    -0.19900
C946        C  0.62973402  0.33360926  0.82890082    -0.12200
C947        C  0.61657048  0.32044719  0.85795093     0.13500
C948        C  0.61327513  0.33629111  0.88073218    -0.22600
C949        C  0.64962183  0.40955854  0.84162270    -0.05700
H950        H  0.65102374  0.37278396  0.80219397     0.15100
C951        C  0.60679508  0.29029920  0.86648627    -0.15800
H952        H  0.60287590  0.32627176  0.90284648     0.09400
H953        H  0.68160035  0.44773350  0.95065058     0.07200
H954        H  0.67096528  0.41912264  0.97834301     0.08400
H955        H  0.65988745  0.44336086  0.98357187     0.07500
H956        H  0.56243101  0.33660209  0.88300272     0.02400
H957        H  0.57485021  0.36747264  0.85810122     0.02800
H958        H  0.54918545  0.35885393  0.88869648     0.06300
H959        H  0.65978148  0.41667812  0.81807937     0.05300
H960        H  0.66595069  0.42289313  0.85957895    -0.00400
H961        H  0.63209727  0.41305481  0.84295136     0.01000
H962        H  0.61656422  0.29037007  0.88918727     0.04700
H963        H  0.61313311  0.28016164  0.84919329     0.06600
H964        H  0.58323029  0.27701480  0.86914955     0.07500
C965        C  0.38266843  0.89899149  0.51315374    -0.22100
C966        C  0.40618000  0.91701286  0.99436970     0.09900
C967        C  0.41663584  0.90603322  0.97258101     0.10300
C968        C  0.40361048  0.87640807  0.97059192    -0.17000
C969        C  0.37916412  0.85770373  0.48978018    -0.27500
C970        C  0.36897607  0.86928066  0.51130572     0.18600
C971        C  0.42080481  0.94824621  0.99929409     0.12600
C972        C  0.44156300  0.92557568  0.95144456    -0.11800
H973        H  0.41233665  0.86807007  0.95474050     0.12800
C974        C  0.34331932  0.85104855  0.53209444    -0.22600
H975        H  0.37551868  0.90785372  0.53041228     0.08500
C976        C  0.40941294  0.96352314  0.98802278     0.04800
C977        C  0.42475503  0.99320924  0.99242952    -0.19900
C978        C  0.45062726  0.00851276  0.50559850    -0.12200
C979        C  0.46329250  0.99362537  0.51406753     0.13500
C980        C  0.44775669  0.96394232  0.51032000    -0.22600
C981        C  0.38144399  0.94862580  0.97072379    -0.05700
H982        H  0.41612814  0.00501875  0.98366978     0.15100
C983        C  0.49347113  0.00832741  0.52596459    -0.15800
H984        H  0.45740636  0.95253303  0.51700692     0.09400
H985        H  0.32758268  0.85674168  0.52809445     0.07200
H986        H  0.34993171  0.85496212  0.55713298     0.08400
H987        H  0.33223570  0.82795856  0.52726020     0.07500
H988        H  0.46088189  0.93975415  0.96571021     0.02400
H989        H  0.43658826  0.93876793  0.93708638     0.02800
H990        H  0.44647125  0.91345813  0.93518386     0.06300
H991        H  0.37595812  0.96382012  0.96282824     0.05300
H992        H  0.36403902  0.93258727  0.98631911    -0.00400
H993        H  0.38271059  0.93778635  0.94966020     0.01000
H994        H  0.49330411  0.00060055  0.55005529     0.04700
H995        H  0.50488821  0.03182326  0.52662984     0.06600
H996        H  0.50581225  0.00323111  0.51027902     0.07500
C997        C  0.53535773  0.16223349  0.85305373    -0.22100
C998        C  0.55008334  0.16424620  0.88050782     0.09900
C999        C  0.57947123  0.18549333  0.88296936     0.10300
C1000       C  0.59361095  0.20417363  0.85766606    -0.17000
C1001       C  0.57900193  0.20223273  0.83004354    -0.27500
C1002       C  0.54943258  0.18100495  0.82770521     0.18600
C1003       C  0.53442007  0.14359906  0.90629382     0.12600
C1004       C  0.59583173  0.18856192  0.91237580    -0.11800
H1005       H  0.61622607  0.22050044  0.85949340     0.12800
C1006       C  0.53284595  0.17725083  0.79823217    -0.22600
H1007       H  0.51279113  0.14570965  0.85142023     0.08500
C1008       C  0.51747874  0.14709474  0.92766851     0.04800
C1009       C  0.50348312  0.12722081  0.95209465    -0.19900
C1010       C  0.50663641  0.10433409  0.95610891    -0.12200
C1011       C  0.52426388  0.10132636  0.93498849     0.13500
C1012       C  0.53748001  0.12073457  0.90999124    -0.22600
C1013       C  0.51501284  0.17231940  0.92528008    -0.05700
H1014       H  0.49055889  0.12994110  0.96869453     0.15100
C1015       C  0.53078700  0.07897384  0.93971021    -0.15800
H1016       H  0.55097609  0.11858988  0.89367289     0.09400
H1017       H  0.51042834  0.15856532  0.79998198     0.07200
H1018       H  0.54291904  0.17388729  0.77779842     0.08400
H1019       H  0.53228416  0.19637417  0.79408495     0.07500
H1020       H  0.59522843  0.16879700  0.91660868     0.02400
H1021       H  0.58618150  0.19248332  0.93279350     0.02800
H1022       H  0.61854157  0.20662274  0.91056580     0.06300
H1023       H  0.50142699  0.17218576  0.94430444     0.05300
H1024       H  0.50541398  0.17199285  0.90237788    -0.00400
H1025       H  0.53651393  0.19238231  0.92713217     0.01000
H1026       H  0.51134085  0.05735815  0.93632686     0.04700
H1027       H  0.53934045  0.08074237  0.96372190     0.06600
H1028       H  0.54697386  0.08152382  0.92262227     0.07500
C1029       C  0.55506468  0.18572840  0.63774426    -0.22100
C1030       C  0.54051902  0.15694275  0.64657154     0.09900
C1031       C  0.54293228  0.14961889  0.67755165     0.10300
C1032       C  0.56021667  0.17134084  0.69901629    -0.17000
C1033       C  0.57518490  0.20019663  0.69014833    -0.27500
C1034       C  0.57266004  0.20753530  0.65902481     0.18600
C1035       C  0.52546794  0.13498630  0.62199931     0.12600
C1036       C  0.52734532  0.11890963  0.68784849    -0.11800
H1037       H  0.56208269  0.16578786  0.72289469     0.12800
C1038       C  0.58926160  0.23780112  0.64683698    -0.22600
H1039       H  0.55351490  0.19116638  0.61369308     0.08500
C1040       C  0.49777796  0.12568121  0.61183398     0.04800
C1041       C  0.48586395  0.10696572  0.58617355    -0.19900
C1042       C  0.50120266  0.09762830  0.57056747    -0.12200
C1043       C  0.52856854  0.10629113  0.58151040     0.13500
C1044       C  0.54026310  0.12474627  0.60720595    -0.22600
C1045       C  0.48120188  0.13599168  0.62764606    -0.05700
H1046       H  0.46505280  0.10055470  0.57740336     0.15100
C1047       C  0.54644139  0.09732534  0.56595105    -0.15800
H1048       H  0.56155424  0.13199650  0.61514119     0.09400
H1049       H  0.57423956  0.24365165  0.63947103     0.07200
H1050       H  0.60217209  0.23950726  0.62615212     0.08400
H1051       H  0.60424464  0.25360687  0.66423068     0.07500
H1052       H  0.53452871  0.10752736  0.67361983     0.02400
H1053       H  0.50404529  0.10849553  0.68462295     0.02800
H1054       H  0.53129787  0.11692209  0.71299897     0.06300
H1055       H  0.45983142  0.12655313  0.61688582     0.05300
H1056       H  0.49299292  0.15954148  0.62555297    -0.00400
H1057       H  0.47819535  0.12995681  0.65290858     0.01000
H1058       H  0.56660175  0.11649032  0.55715169     0.04700
H1059       H  0.53560699  0.08273622  0.54586952     0.06600
H1060       H  0.55165195  0.08617249  0.58337490     0.07500
C1061       C  0.93989055  0.34507167  0.98542244    -0.22100
C1062       C  0.95784526  0.36913569  0.50402662     0.09900
C1063       C  0.94596158  0.37876849  0.52555725     0.10300
C1064       C  0.91632009  0.36554237  0.52635475    -0.17000
C1065       C  0.89848261  0.34302321  0.00621157    -0.27500
C1066       C  0.91014774  0.33122320  0.98724335     0.18600
C1067       C  0.98913508  0.38365192  0.50082660     0.12600
C1068       C  0.96451576  0.40280429  0.54792354    -0.11800
H1069       H  0.90736230  0.37371860  0.54208356     0.12800
C1070       C  0.89211656  0.30360897  0.96957851    -0.22600
H1071       H  0.94888506  0.33648462  0.97035682     0.08500
C1072       C  0.00349692  0.37148084  0.51263036     0.04800
C1073       C  0.03323448  0.38641302  0.50928717    -0.19900
C1074       C  0.04928597  0.41276376  0.99427004    -0.12200
C1075       C  0.03499809  0.42468408  0.98124734     0.13500
C1076       C  0.00522899  0.40976388  0.98398196    -0.22600
C1077       C  0.98756028  0.34311185  0.52935523    -0.05700
H1078       H  0.04441022  0.37721525  0.51836086     0.15100
C1079       C  0.05103443  0.45369980  0.96582219    -0.15800
H1080       H  0.99412843  0.41871690  0.97399245     0.09400
H1081       H  0.89840111  0.28880655  0.97645807     0.07200
H1082       H  0.89563682  0.30778640  0.94391552     0.08400
H1083       H  0.86903726  0.29247999  0.97464582     0.07500
H1084       H  0.97932863  0.42267719  0.53461275     0.02400
H1085       H  0.97705140  0.39723804  0.56262305     0.02800
H1086       H  0.95166094  0.40704428  0.56386093     0.06300
H1087       H  0.00217295  0.33706985  0.53781193     0.05300
H1088       H  0.97193062  0.32620199  0.51318272    -0.00400
H1089       H  0.97609799  0.34413540  0.55000577     0.01000
H1090       H  0.06162769  0.45345550  0.94399486     0.04700
H1091       H  0.06727498  0.46977938  0.98226866     0.06600
H1092       H  0.03658670  0.46050433  0.95925180     0.07500
C1093       C  0.73102397  0.30853158  0.88198323    -0.22100
C1094       C  0.75017583  0.30042161  0.87713542     0.09900
C1095       C  0.75015817  0.28812825  0.84832408     0.10300
C1096       C  0.73095676  0.28429529  0.82478067    -0.17000
C1097       C  0.71206536  0.29282822  0.82929605    -0.27500
C1098       C  0.71196323  0.30499979  0.85834159     0.18600
C1099       C  0.76986994  0.30466809  0.90274343     0.12600
C1100       C  0.77069833  0.27947812  0.84230257    -0.11800
H1101       H  0.73101353  0.27502788  0.80250627     0.12800
C1102       C  0.69126655  0.31341292  0.86495970    -0.22600
H1103       H  0.73105711  0.31767082  0.90438516     0.08500
C1104       C  0.79494066  0.33162708  0.90868543     0.04800
C1105       C  0.81267881  0.33462723  0.93364920    -0.19900
C1106       C  0.80576386  0.31126308  0.95273083    -0.12200
C1107       C  0.78106547  0.28404510  0.94601776     0.13500
C1108       C  0.76329400  0.28119462  0.92127187    -0.22600
C1109       C  0.80280417  0.35715780  0.88879066    -0.05700
H1110       H  0.83152826  0.35545778  0.93896224     0.15100
C1111       C  0.77297681  0.25753351  0.96417799    -0.15800
H1112       H  0.74414471  0.26045910  0.91631644     0.09400
H1113       H  0.69561795  0.33110734  0.84916276     0.07200
H1114       H  0.69306308  0.32085653  0.88952419     0.08400
H1115       H  0.66905655  0.29482509  0.86138508     0.07500
H1116       H  0.76691278  0.26282469  0.85944153     0.02400
H1117       H  0.79294290  0.29829596  0.84475769     0.02800
H1118       H  0.76821557  0.27072755  0.81828169     0.06300
H1119       H  0.82328996  0.37654075  0.89637202     0.05300
H1120       H  0.78595126  0.36157455  0.89062561    -0.00400
H1121       H  0.80505000  0.35292410  0.86385569     0.01000
H1122       H  0.75222339  0.24888608  0.97622471     0.04700
H1123       H  0.78838465  0.26124789  0.48198582     0.06600
H1124       H  0.77082365  0.24121702  0.94768305     0.07500
C1125       C  0.79140426  0.32912471  0.60777953    -0.22100
C1126       C  0.77400169  0.30146327  0.62000808     0.09900
C1127       C  0.77545128  0.27920529  0.60733490     0.10300
C1128       C  0.79355034  0.28493372  0.58167101    -0.17000
C1129       C  0.81006919  0.31237179  0.56860584    -0.27500
C1130       C  0.80945567  0.33489646  0.58213606     0.18600
C1131       C  0.75297633  0.29605778  0.64451894     0.12600
C1132       C  0.75757198  0.24942891  0.62057947    -0.11800
H1133       H  0.79403598  0.26776574  0.57098097     0.12800
C1134       C  0.82679412  0.36496595  0.56948601    -0.22600
H1135       H  0.79019749  0.34613840  0.61769152     0.08500
C1136       C  0.76095683  0.30322703  0.67620552     0.04800
C1137       C  0.74047956  0.29936225  0.69812009    -0.19900
C1138       C  0.71220991  0.28809063  0.68901652    -0.12200
C1139       C  0.70413521  0.28053632  0.65728663     0.13500
C1140       C  0.72473733  0.28472938  0.63539915    -0.22600
C1141       C  0.79091865  0.31458844  0.68684515    -0.05700
H1142       H  0.74643727  0.30484469  0.72255068     0.15100
C1143       C  0.67438313  0.26888076  0.64547055    -0.15800
H1144       H  0.71884333  0.27947296  0.61091577     0.09400
H1145       H  0.84085216  0.37966292  0.58832705     0.07200
H1146       H  0.81226738  0.37132342  0.56169590     0.08400
H1147       H  0.84051563  0.36759783  0.54929946     0.07500
H1148       H  0.73459303  0.24105901  0.61822545     0.02400
H1149       H  0.76270909  0.24966930  0.64582035     0.02800
H1150       H  0.76155787  0.23465875  0.60813524     0.06300
H1151       H  0.79342292  0.31862753  0.71255406     0.05300
H1152       H  0.80617388  0.33495927  0.67454997    -0.00400
H1153       H  0.79633233  0.29886776  0.68138619     0.01000
H1154       H  0.67521146  0.28317866  0.62685146     0.04700
H1155       H  0.65965274  0.26703338  0.66403241     0.06600
H1156       H  0.66532601  0.24738503  0.63532023     0.07500
loop_ 
_geom_bond_atom_site_label_1 
_geom_bond_atom_site_label_2 
_geom_bond_distance 
_geom_bond_site_symmetry_2 
_ccdc_geom_bond_type 
C1            C6   1.410       .  A
C1          C580   1.408       .  A
C1          C487   1.489       .  S
C2            C3   1.399       .  A
C2          C579   1.408       .  A
C2            H7   1.084       .  S
C3            C4   1.395       .  A
C3          C551   1.470       .  S
C4          C583   1.398   1_554  A
C4            H8   1.085       .  S
C5            C6   1.404       .  A
C5          C582   1.398       .  A
C5          C528   1.478       .  S
C6            H9   1.084       .  S
C10          C11   1.408       .  A
C10         C593   1.406   1_554  A
C10         C400   1.486       .  S
C11          C12   1.403       .  A
C11          H16   1.084       .  S
C12          C13   1.398       .  A
C12         C464   1.475       .  S
C13         C592   1.400   1_554  A
C13          H17   1.085       .  S
C14          C15   1.404       .  A
C14         C591   1.399       .  A
C14         C432   1.482       .  S
C15         C588   1.405       .  A
C15          H18   1.083       .  S
C19          C24   1.406       .  A
C19         C598   1.405   1_554  A
C19         C304   1.482       .  S
C20          C21   1.403       .  A
C20         C597   1.405       .  A
C20          H25   1.084       .  S
C21         C600   1.399       .  A
C21         C359   1.479       .  S
C22          C23   1.397       .  A
C22         C599   1.400   1_554  A
C22          H26   1.085       .  S
C23          C24   1.401       .  A
C23         C336   1.471       .  S
C24          H27   1.084       .  S
Fe28         O44   2.077       .  S
Fe28         O34   2.054       .  S
Fe28         O41   2.051       .  S
Fe28         O33   2.077       .  S
Fe28         O39   1.955       .  S
Fe29         O32   2.072       .  S
Fe29         O36   2.055       .  S
Fe29         O40   2.075       .  S
Fe29         O45   2.047       .  S
Fe29         O39   1.958       .  S
Fe30         O48   2.057       .  S
Fe30         O35   2.070       .  S
Fe30         O42   2.076       .  S
Fe30         O31   2.049       .  S
Fe30         O39   1.958       .  S
O31          C38   1.265       .  A
O32          C46   1.270       .  A
O33          C38   1.271       .  A
O34          C37   1.267       .  A
O35          C47   1.270       .  A
O36          C49   1.268       .  A
C37         C560   1.468       .  S
C37          O42   1.271       .  A
C38         C519   1.474       .  S
O40          C43   1.270       .  A
O41          C43   1.267       .  A
C43         C423   1.476       .  S
O44          C49   1.272       .  A
O45          C47   1.267       .  A
C46         C327   1.471       .  S
C46          O48   1.268       .  A
C47         C368   1.472       .  S
C49         C455   1.475       .  S
C50          C51   1.405       .  A
C50         C633   1.405       .  A
C50         C496   1.481       .  S
C51          C52   1.401       .  A
C51          H56   1.083       .  S
C52         C631   1.399       .  A
C52         C263   1.475       .  S
C53          C54   1.399   1_556  A
C53         C630   1.399       .  A
C53          H57   1.085       .  S
C54          C55   1.403       .  A
C54         C231   1.478       .  S
C55         C628   1.406   1_554  A
C55          H58   1.084       .  S
C59          C60   1.408   1_556  A
C59         C642   1.410       .  A
C59         C391   1.489       .  S
C60          C61   1.401       .  A
C60          H65   1.084       .  S
C61          C62   1.398   1_554  A
C61         C199   1.478       .  S
C62         C641   1.401       .  A
C62          H66   1.085       .  S
C63          C64   1.407       .  A
C63         C640   1.400       .  A
C63         C176   1.484       .  S
C64         C637   1.410       .  A
C64          H67   1.084       .  S
C68          C69   1.410   1_556  A
C68         C651   1.408       .  A
C68         C295   1.485       .  S
C69          C70   1.404       .  A
C69          H74   1.084       .  S
C70          C71   1.396   1_554  A
C70         C144   1.477       .  S
C71         C650   1.396       .  A
C71          H75   1.085       .  S
C72          C73   1.401       .  A
C72         C649   1.395       .  A
C72         C103   1.472       .  S
C73         C646   1.408       .  A
C73          H76   1.084       .  S
Fe77         O93   2.082       .  S
Fe77         O83   2.057       .  S
Fe77         O90   2.060       .  S
Fe77         O82   2.076       .  S
Fe77         O88   1.975       .  S
Fe78         O81   2.068       .  S
Fe78         O85   2.049       .  S
Fe78         O89   2.057       .  S
Fe78         O94   2.052       .  S
Fe78         O88   1.977       .  S
Fe79         O97   2.051       .  S
Fe79         O84   2.075       .  S
Fe79         O91   2.063       .  S
Fe79         O80   2.059       .  S
Fe79         O88   1.972       .  S
O80          C87   1.269       .  A
O81          C95   1.267       .  A
O82          C87   1.273       .  A
O83          C86   1.265       .  A
O84          C96   1.271       .  A
O85          C98   1.268       .  A
C86         C208   1.474       .  S
C86          O91   1.266       .  A
C87         C167   1.479       .  S
O89          C92   1.265       .  A
O90          C92   1.264       .  A
C92         C112   1.477       .  S
O93          C98   1.274       .  A
O94          C96   1.267       .  A
C95         C240   1.472       .  S
C95          O97   1.265       .  A
C96         C272   1.466       .  S
C98         C135   1.469       .  S
C99         C100   1.400       .  A
C99         C104   1.399       .  A
C99         H109   1.084       .  S
C100        C101   1.412       .  A
C100        C105   1.478       .  S
C101        C102   1.405       .  A
C101        C106   1.506       .  S
C102        C103   1.402       .  A
C102        H107   1.083       .  S
C103        C104   1.412       .  A
C104        C108   1.508       .  S
C105        C110   1.409       .  A
C105        C114   1.403       .  A
C106        H122   1.110       .  S
C106        H123   1.110       .  S
C106        H124   1.111       .  S
C108        H119   1.111       .  S
C108        H120   1.109       .  S
C108        H699   1.110       .  S
C110        C111   1.400       .  A
C110        C115   1.507       .  S
C111        C112   1.405       .  A
C111        H116   1.084       .  S
C112        C113   1.415       .  A
C113        C114   1.405       .  A
C113        C117   1.508       .  S
C114        H118   1.084       .  S
C115        H125   1.111       .  S
C115        H126   1.109       .  S
C115        H127   1.110       .  S
C117        H128   1.111       .  S
C117        H129   1.111       .  S
C117        H130   1.109       .  S
H121        C686   1.110       .  S
C131        C132   1.402       .  A
C131        C136   1.403       .  A
C131        H141   1.084       .  S
C132        C133   1.409       .  A
C132        C137   1.477       .  S
C133        C134   1.402       .  A
C133        C138   1.506       .  S
C134        C135   1.403       .  A
C134        H139   1.084       .  S
C135        C136   1.415       .  A
C136        C140   1.509       .  S
C137        C142   1.409       .  A
C137        C146   1.401       .  A
C138        H154   1.110       .  S
C138        H155   1.110       .  S
C138        H156   1.111       .  S
C140        H151   1.111       .  S
C140        H152   1.110       .  S
C140        H153   1.108       .  S
C142        C143   1.401       .  A
C142        C147   1.507       .  S
C143        C144   1.405       .  A
C143        H148   1.084       .  S
C144        C145   1.415       .  A
C145        C146   1.403       .  A
C145        C149   1.507       .  S
C146        H150   1.084       .  S
C147        H157   1.111       .  S
C147        H158   1.110       .  S
C147        H159   1.110       .  S
C149        H160   1.110       .  S
C149        H161   1.106       .  S
C149        H162   1.110       .  S
C163        C164   1.399       .  A
C163        C168   1.404       .  A
C163        H173   1.084       .  S
C164        C165   1.412       .  A
C164        C169   1.480       .  S
C165        C166   1.404       .  A
C165        C170   1.507       .  S
C166        C167   1.403       .  A
C166        H171   1.084       .  S
C167        C168   1.418       .  A
C168        C172   1.508       .  S
C169        C174   1.411       .  A
C169        C178   1.400       .  A
C170        H186   1.110       .  S
C170        H187   1.109       .  S
C170        H188   1.111       .  S
C172        H183   1.110       .  S
C172        H184   1.111       .  S
C172        H185   1.109       .  S
C174        C175   1.404       .  A
C174        C179   1.506       .  S
C175        C176   1.405       .  A
C175        H180   1.085       .  S
C176        C177   1.418       .  A
C177        C178   1.402       .  A
C177        C181   1.508       .  S
C178        H182   1.085       .  S
C179        H189   1.111       .  S
C179        H190   1.110       .  S
C179        H191   1.109       .  S
C181        H192   1.111       .  S
C181        H194   1.108       .  S
C181        H771   1.110       .  S
H193        C759   1.110       .  S
C195        C196   1.399       .  A
C195        C200   1.401       .  A
C195        H205   1.085       .  S
C196        C197   1.411       .  A
C196        C201   1.479       .  S
C197        C198   1.404       .  A
C197        C202   1.506       .  S
C198        C199   1.403       .  A
C198        H203   1.085       .  S
C199        C200   1.416       .  A
C200        C204   1.508       .  S
C201        C206   1.412       .  A
C201        C210   1.400       .  A
C202        H218   1.110       .  S
C202        H219   1.110       .  S
C202        H220   1.111       .  S
C204        H215   1.110       .  S
C204        H216   1.110       .  S
C204        H795   1.108       .  S
C206        C207   1.403       .  A
C206        C211   1.507       .  S
C207        C208   1.402       .  A
C207        H212   1.084       .  S
C208        C209   1.415       .  A
C209        C210   1.404       .  A
C209        C213   1.507       .  S
C210        H214   1.084       .  S
C211        H221   1.111       .  S
C211        H222   1.110       .  S
C211        H223   1.110       .  S
C213        H224   1.111       .  S
C213        H225   1.110       .  S
C213        H226   1.110       .  S
H217        C782   1.108       .  S
C227        C228   1.400       .  A
C227        C232   1.401       .  A
C227        H237   1.085       .  S
C228        C229   1.410       .  A
C228        C233   1.477       .  S
C229        C230   1.402       .  A
C229        C234   1.506       .  S
C230        C231   1.403       .  A
C230        H235   1.084       .  S
C231        C232   1.417       .  A
C232        C236   1.508       .  S
C233        C238   1.409       .  A
C233        C242   1.401       .  A
C234        H250   1.110       .  S
C234        H251   1.110       .  S
C234        H252   1.111       .  S
C236        H247   1.110       .  S
C236        H248   1.110       .  S
C236        H249   1.108       .  S
C238        C239   1.403       .  A
C238        C243   1.506       .  S
C239        C240   1.404       .  A
C239        H244   1.084       .  S
C240        C241   1.415       .  A
C241        C242   1.401       .  A
C241        C245   1.509       .  S
C242        H246   1.085       .  S
C243        H253   1.111       .  S
C243        H254   1.110       .  S
C243        H255   1.110       .  S
C245        H256   1.111       .  S
C245        H257   1.108       .  S
C245        H258   1.110       .  S
C259        C260   1.401       .  A
C259        C264   1.400       .  A
C259        H269   1.085       .  S
C260        C261   1.411       .  A
C260        C265   1.478       .  S
C261        C262   1.402       .  A
C261        C266   1.506       .  S
C262        C263   1.403       .  A
C262        H267   1.085       .  S
C263        C264   1.414       .  A
C264        C268   1.507       .  S
C265        C270   1.412       .  A
C265        C274   1.400       .  A
C266        H282   1.110       .  S
C266        H283   1.110       .  S
C266        H284   1.111       .  S
C268        H279   1.110       .  S
C268        H280   1.110       .  S
C268        H281   1.108       .  S
C270        C271   1.402       .  A
C270        C275   1.507       .  S
C271        C272   1.401       .  A
C271        H276   1.085       .  S
C272        C273   1.415       .  A
C273        C274   1.401       .  A
C273        C277   1.509       .  S
C274        H278   1.085       .  S
C275        H285   1.111       .  S
C275        H286   1.110       .  S
C275        H287   1.110       .  S
C277        H288   1.111       .  S
C277        H289   1.107       .  S
C277        H290   1.110       .  S
C291        C296   1.403       .  A
C291        C870   1.401   1_554  A
C291        H301   1.084       .  S
C292        C293   1.411       .  A
C292        C869   1.400       .  A
C292        C297   1.481       .  S
C293        C294   1.403       .  A
C293        C298   1.507       .  S
C294        C873   1.406       .  A
C294        H299   1.084       .  S
C295        C296   1.417   1_556  A
C295        C872   1.406       .  A
C296        C300   1.507       .  S
C297        C302   1.411       .  A
C297        C884   1.400       .  A
C298        H314   1.109       .  S
C298        H315   1.111       .  S
C298        H316   1.111       .  S
C300        H311   1.111       .  S
C300        H312   1.110       .  S
C300        H313   1.106       .  S
C302        C303   1.403       .  A
C302        C307   1.506       .  S
C303        C882   1.406       .  A
C303        H308   1.084       .  S
C304        C305   1.417       .  A
C304        C881   1.405   1_554  A
C305        C306   1.401       .  A
C305        C309   1.508       .  S
C306        C875   1.401   1_554  A
C306        H310   1.085       .  S
C307        H317   1.111       .  S
C307        H318   1.109       .  S
C307        H319   1.110       .  S
C309        H320   1.110       .  S
C309        H321   1.105       .  S
C309        H322   1.111       .  S
C323        C324   1.402       .  A
C323        C328   1.402       .  A
C323        H333   1.084       .  S
C324        C325   1.408       .  A
C324        C329   1.477       .  S
C325        C326   1.401       .  A
C325        C330   1.506       .  S
C326        C327   1.405       .  A
C326        H331   1.084       .  S
C327        C328   1.415       .  A
C328        C332   1.508       .  S
C329        C334   1.410       .  A
C329        C338   1.401       .  A
C330        H346   1.110       .  S
C330        H347   1.110       .  S
C330        H348   1.111       .  S
C332        H343   1.110       .  S
C332        H344   1.111       .  S
C332        H345   1.106       .  S
C334        C335   1.403       .  A
C334        C339   1.506       .  S
C335        C336   1.402       .  A
C335        H340   1.084       .  S
C336        C337   1.414       .  A
C337        C338   1.400       .  A
C337        C341   1.507       .  S
C338        H342   1.085       .  S
C339        H349   1.111       .  S
C339        H350   1.110       .  S
C339        H351   1.110       .  S
C341        H352   1.110       .  S
C341        H353   1.106       .  S
C341        H354   1.110       .  S
C355        C356   1.399       .  A
C355        C360   1.400       .  A
C355        H365   1.085       .  S
C356        C357   1.409       .  A
C356        C361   1.473       .  S
C357        C358   1.400       .  A
C357        C362   1.507       .  S
C358        C359   1.404       .  A
C358        H363   1.084       .  S
C359        C360   1.418       .  A
C360        C364   1.508       .  S
C361        C366   1.408       .  A
C361        C370   1.400       .  A
C362        H378   1.110       .  S
C362        H379   1.110       .  S
C362        H380   1.111       .  S
C364        H375   1.111       .  S
C364        H376   1.110       .  S
C364        H377   1.108       .  S
C366        C367   1.401       .  A
C366        C371   1.506       .  S
C367        C368   1.405       .  A
C367        H372   1.084       .  S
C368        C369   1.418       .  A
C369        C370   1.400       .  A
C369        C373   1.510       .  S
C370        H374   1.084       .  S
C371        H381   1.111       .  S
C371        H382   1.110       .  S
C371        H383   1.110       .  S
C373        H384   1.111       .  S
C373        H385   1.106       .  S
C373        H386   1.110       .  S
C387        C392   1.406       .  A
C387        C966   1.402   1_554  A
C387        H397   1.084       .  S
C388        C389   1.413       .  A
C388        C965   1.402       .  A
C388        C393   1.488       .  S
C389        C390   1.406       .  A
C389        C394   1.507       .  S
C390        C969   1.406       .  A
C390        H395   1.084       .  S
C391        C392   1.418   1_556  A
C391        C968   1.405       .  A
C392        C396   1.507       .  S
C393        C398   1.413       .  A
C393        C980   1.402       .  A
C394        H410   1.109       .  S
C394        H411   1.110       .  S
C394        H412   1.111       .  S
C396        H407   1.111       .  S
C396        H408   1.110       .  S
C396        H409   1.108       .  S
C398        C399   1.407       .  A
C398        C403   1.506       .  S
C399        C978   1.404   1_565  A
C399        H404   1.084   1_565  S
C400        C401   1.418   1_545  A
C400        C977   1.405   1_544  A
C401        C402   1.404       .  A
C401        C405   1.509   1_565  S
C402        C971   1.402   1_554  A
C402        H406   1.085       .  S
C403        H413   1.111       .  S
C403        H414   1.109       .  S
C403        H415   1.110       .  S
C405        H416   1.110   1_545  S
C405        H417   1.106       .  S
C405        H418   1.111       .  S
C419        C420   1.401       .  A
C419        C424   1.404       .  A
C419        H429   1.084       .  S
C420        C421   1.410       .  A
C420        C425   1.479       .  S
C421        C422   1.401       .  A
C421        C426   1.507       .  S
C422        C423   1.404       .  A
C422        H427   1.085       .  S
C423        C424   1.416       .  A
C424        C428   1.508       .  S
C425        C430   1.409       .  A
C425        C434   1.401       .  A
C426        H442   1.110       .  S
C426        H443   1.110       .  S
C426        H444   1.111       .  S
C428        H439   1.111       .  S
C428        H440   1.110       .  S
C428        H441   1.109       .  S
C430        C431   1.402       .  A
C430        C435   1.506       .  S
C431        C432   1.405       .  A
C431        H436   1.085       .  S
C432        C433   1.416       .  A
C433        C434   1.403       .  A
C433        C437   1.508       .  S
C434        H438   1.085       .  S
C435        H445   1.111       .  S
C435        H446   1.110       .  S
C435        H447   1.111       .  S
C437        H448   1.108       .  S
C437        H449   1.111       .  S
C437        H450   1.111       .  S
C451        C452   1.402       .  A
C451        C456   1.403       .  A
C451        H461   1.085       .  S
C452        C453   1.408       .  A
C452        C457   1.479       .  S
C453        C454   1.402       .  A
C453        C458   1.506       .  S
C454        C455   1.405       .  A
C454        H459   1.084       .  S
C455        C456   1.417       .  A
C456        C460   1.509       .  S
C457        C462   1.411       .  A
C457        C466   1.400       .  A
C458        H474   1.110       .  S
C458        H475   1.110       .  S
C458        H476   1.111       .  S
C460        H471   1.110       .  S
C460        H472   1.111       .  S
C460        H473   1.106       .  S
C462        C463   1.406       .  A
C462        C467   1.505       .  S
C463        C464   1.404       .  A
C463        H468   1.084       .  S
C464        C465   1.414       .  A
C465        C466   1.399       .  A
C465        C469   1.508       .  S
C466        H470   1.085       .  S
C467        H477   1.111       .  S
C467        H478   1.110       .  S
C467        H479   1.110       .  S
C469        H480   1.110       .  S
C469        H481   1.108       .  S
C469        H482   1.110       .  S
C483        C488   1.404       .  A
C483       C1062   1.401       .  A
C483        H493   1.084       .  S
C484        C485   1.411       .  A
C484       C1061   1.402   1_554  A
C484        C489   1.483       .  S
C485        C486   1.402       .  A
C485        C490   1.507       .  S
C486       C1065   1.406       .  A
C486        H491   1.084       .  S
C487        C488   1.420       .  A
C487       C1064   1.407       .  A
C488        C492   1.508       .  S
C489        C494   1.412   1_655  A
C489       C1076   1.401   1_654  A
C490        H506   1.109       .  S
C490        H507   1.110       .  S
C490        H508   1.111       .  S
C492        H503   1.111       .  S
C492        H504   1.110       .  S
C492        H505   1.107       .  S
C494        C495   1.405       .  A
C494        C499   1.506   1_455  S
C495       C1074   1.405   1_554  A
C495        H500   1.084       .  S
C496        C497   1.415       .  A
C496       C1073   1.404       .  A
C497        C498   1.403       .  A
C497        C501   1.508       .  S
C498       C1067   1.401   1_455  A
C498        H502   1.084   1_455  S
C499        H509   1.111   1_655  S
C499        H510   1.109       .  S
C499        H511   1.110       .  S
C501        H512   1.108       .  S
C501        H513   1.110       .  S
C501        H514   1.111       .  S
C515        C516   1.401       .  A
C515        C520   1.404       .  A
C515        H525   1.084       .  S
C516        C517   1.409       .  A
C516        C521   1.478       .  S
C517        C518   1.401       .  A
C517        C522   1.506       .  S
C518        C519   1.403       .  A
C518        H523   1.084       .  S
C519        C520   1.416       .  A
C520        C524   1.509       .  S
C521        C526   1.411       .  A
C521        C530   1.399       .  A
C522        H538   1.110       .  S
C522        H539   1.110       .  S
C522        H540   1.111       .  S
C524        H535   1.109       .  S
C524        H536   1.111       .  S
C524        H537   1.111       .  S
C526        C527   1.404       .  A
C526        C531   1.506       .  S
C527        C528   1.403       .  A
C527        H532   1.085       .  S
C528        C529   1.417       .  A
C529        C530   1.400       .  A
C529        C533   1.508       .  S
C530        H534   1.085       .  S
C531        H541   1.111       .  S
C531        H542   1.110       .  S
C531        H543   1.110       .  S
C533        H544   1.110       .  S
C533        H546   1.111       .  S
C533       H1123   1.108       .  S
H545       C1111   1.108       .  S
C547        C548   1.401       .  A
C547        C552   1.400       .  A
C547        H557   1.085       .  S
C548        C549   1.410       .  A
C548        C553   1.476       .  S
C549        C550   1.403       .  A
C549        C554   1.506       .  S
C550        C551   1.402       .  A
C550        H555   1.084       .  S
C551        C552   1.413       .  A
C552        C556   1.508       .  S
C553        C558   1.409       .  A
C553        C562   1.402       .  A
C554        H570   1.110       .  S
C554        H571   1.110       .  S
C554        H572   1.111       .  S
C556        H567   1.110       .  S
C556        H568   1.110       .  S
C556        H569   1.108       .  S
C558        C559   1.402       .  A
C558        C563   1.506       .  S
C559        C560   1.404       .  A
C559        H564   1.084       .  S
C560        C561   1.414       .  A
C561        C562   1.401       .  A
C561        C565   1.509       .  S
C562        H566   1.084       .  S
C563        H573   1.111       .  S
C563        H574   1.110       .  S
C563        H575   1.110       .  S
C565        H576   1.111       .  S
C565        H577   1.107       .  S
C565        H578   1.110       .  S
C579        C584   1.410   1_554  A
C579       C1065   1.487       .  S
C580        C581   1.399       .  A
C580        H585   1.084       .  S
C581        C582   1.395       .  A
C581       C1129   1.470       .  S
C582        H586   1.085       .  S
C583        C584   1.404       .  A
C583       C1106   1.477       .  S
C584        H587   1.084       .  S
C588        C589   1.408       .  A
C588        C978   1.483       .  S
C589        C590   1.404       .  A
C589        H594   1.084       .  S
C590        C591   1.398       .  A
C590       C1042   1.475       .  S
C591        H595   1.085       .  S
C592        C593   1.405       .  A
C592       C1010   1.485       .  S
C593        H596   1.083       .  S
C597        C602   1.407       .  A
C597        C882   1.483       .  S
C598        C599   1.403       .  A
C598        H603   1.084       .  S
C599        C937   1.479       .  S
C600        C601   1.396       .  A
C600        H604   1.085       .  S
C601        C602   1.401       .  A
C601        C914   1.470       .  S
C602        H605   1.084       .  S
Fe606       O622   2.078       .  S
Fe606       O612   2.053       .  S
Fe606       O619   2.051       .  S
Fe606       O611   2.078       .  S
Fe606       O617   1.955       .  S
Fe607       O610   2.072       .  S
Fe607       O614   2.055       .  S
Fe607       O618   2.077       .  S
Fe607       O623   2.048       .  S
Fe607       O617   1.958       .  S
Fe608       O626   2.054       .  S
Fe608       O613   2.072       .  S
Fe608       O620   2.076       .  S
Fe608       O609   2.047       .  S
Fe608       O617   1.958       .  S
O609        C616   1.265       .  A
O610        C624   1.270       .  A
O611        C616   1.271       .  A
O612        C615   1.267       .  A
O613        C625   1.270       .  A
O614        C627   1.268       .  A
C615       C1138   1.468       .  S
C615        O620   1.271       .  A
C616       C1097   1.475       .  S
O618        C621   1.270       .  A
O619        C621   1.267       .  A
C621       C1001   1.478       .  S
O622        C627   1.272       .  A
O623        C625   1.267       .  A
C624        C905   1.469       .  S
C624        O626   1.268       .  A
C625        C946   1.474       .  S
C627       C1033   1.474       .  S
C628        C629   1.406       .  A
C628       C1074   1.483       .  S
C629        C630   1.402       .  A
C629        H634   1.083       .  S
C630        C841   1.477       .  S
C631        C632   1.399       .  A
C631        H635   1.085       .  S
C632        C633   1.403       .  A
C632        C809   1.478       .  S
C633        H636   1.084       .  S
C637        C638   1.410       .  A
C637        C969   1.491       .  S
C638        C639   1.402       .  A
C638        H643   1.084       .  S
C639        C640   1.398       .  A
C639        C777   1.479       .  S
C640        H644   1.085       .  S
C641        C642   1.408       .  A
C641        C754   1.486       .  S
C642        H645   1.083       .  S
C646        C647   1.410       .  A
C646        C873   1.484       .  S
C647        C648   1.403       .  A
C647        H652   1.084       .  S
C648        C649   1.395       .  A
C648        C722   1.476       .  S
C649        H653   1.085       .  S
C650        C651   1.400       .  A
C650        C681   1.472       .  S
C651        H654   1.084       .  S
Fe655       O671   2.077       .  S
Fe655       O661   2.058       .  S
Fe655       O668   2.060       .  S
Fe655       O660   2.072       .  S
Fe655       O666   1.977       .  S
Fe656       O659   2.064       .  S
Fe656       O663   2.050       .  S
Fe656       O667   2.056       .  S
Fe656       O672   2.053       .  S
Fe656       O666   1.981       .  S
Fe657       O675   2.054       .  S
Fe657       O662   2.074       .  S
Fe657       O669   2.064       .  S
Fe657       O658   2.062       .  S
Fe657       O666   1.976       .  S
O658        C665   1.269       .  A
O659        C673   1.266       .  A
O660        C665   1.272       .  A
O661        C664   1.265       .  A
O662        C674   1.270       .  A
O663        C676   1.268       .  A
C664        C786   1.474       .  S
C664        O669   1.267       .  A
C665        C745   1.479       .  S
O667        C670   1.265       .  A
O668        C670   1.264       .  A
C670        C690   1.476       .  S
O671        C676   1.273       .  A
O672        C674   1.267       .  A
C673        C818   1.472       .  S
C673        O675   1.266       .  A
C674        C850   1.465       .  S
C676        C713   1.468       .  S
C677        C678   1.400       .  A
C677        C682   1.398       .  A
C677        H687   1.084       .  S
C678        C679   1.412       .  A
C678        C683   1.478       .  S
C679        C680   1.405       .  A
C679        C684   1.506       .  S
C680        C681   1.402       .  A
C680        H685   1.083       .  S
C681        C682   1.412       .  A
C682        C686   1.508       .  S
C683        C688   1.409       .  A
C683        C692   1.403       .  A
C684        H700   1.110       .  S
C684        H701   1.110       .  S
C684        H702   1.111       .  S
C686        H697   1.111       .  S
C686        H698   1.109       .  S
C688        C689   1.400       .  A
C688        C693   1.507       .  S
C689        C690   1.404       .  A
C689        H694   1.084       .  S
C690        C691   1.414       .  A
C691        C692   1.405       .  A
C691        C695   1.507       .  S
C692        H696   1.084       .  S
C693        H703   1.111       .  S
C693        H704   1.109       .  S
C693        H705   1.110       .  S
C695        H706   1.111       .  S
C695        H707   1.111       .  S
C695        H708   1.109       .  S
C709        C710   1.402       .  A
C709        C714   1.402       .  A
C709        H719   1.084       .  S
C710        C711   1.409       .  A
C710        C715   1.476       .  S
C711        C712   1.401       .  A
C711        C716   1.506       .  S
C712        C713   1.403       .  A
C712        H717   1.084       .  S
C713        C714   1.414       .  A
C714        C718   1.509       .  S
C715        C720   1.409       .  A
C715        C724   1.401       .  A
C716        H732   1.110       .  S
C716        H733   1.110       .  S
C716        H734   1.111       .  S
C718        H729   1.111       .  S
C718        H730   1.110       .  S
C718        H731   1.108       .  S
C720        C721   1.400       .  A
C720        C725   1.507       .  S
C721        C722   1.405       .  A
C721        H726   1.084       .  S
C722        C723   1.415       .  A
C723        C724   1.403       .  A
C723        C727   1.507       .  S
C724        H728   1.084       .  S
C725        H735   1.111       .  S
C725        H736   1.110       .  S
C725        H737   1.110       .  S
C727        H738   1.110       .  S
C727        H739   1.106       .  S
C727        H740   1.110       .  S
C741        C742   1.400       .  A
C741        C746   1.405       .  A
C741        H751   1.084       .  S
C742        C743   1.411       .  A
C742        C747   1.481       .  S
C743        C744   1.403       .  A
C743        C748   1.507       .  S
C744        C745   1.403       .  A
C744        H749   1.084       .  S
C745        C746   1.418       .  A
C746        C750   1.508       .  S
C747        C752   1.411       .  A
C747        C756   1.399       .  A
C748        H764   1.110       .  S
C748        H765   1.109       .  S
C748        H766   1.111       .  S
C750        H761   1.110       .  S
C750        H762   1.111       .  S
C750        H763   1.109       .  S
C752        C753   1.405       .  A
C752        C757   1.506       .  S
C753        C754   1.405       .  A
C753        H758   1.084       .  S
C754        C755   1.419       .  A
C755        C756   1.402       .  A
C755        C759   1.508       .  S
C756        H760   1.085       .  S
C757        H767   1.111       .  S
C757        H768   1.110       .  S
C757        H769   1.110       .  S
C759        H770   1.111       .  S
C759        H772   1.108       .  S
C773        C774   1.399       .  A
C773        C778   1.401       .  A
C773        H783   1.085       .  S
C774        C775   1.411       .  A
C774        C779   1.480       .  S
C775        C776   1.405       .  A
C775        C780   1.506       .  S
C776        C777   1.403       .  A
C776        H781   1.085       .  S
C777        C778   1.416       .  A
C778        C782   1.508       .  S
C779        C784   1.412       .  A
C779        C788   1.400       .  A
C780        H796   1.110       .  S
C780        H797   1.110       .  S
C780        H798   1.111       .  S
C782        H793   1.110       .  S
C782        H794   1.110       .  S
C784        C785   1.403       .  A
C784        C789   1.506       .  S
C785        C786   1.402       .  A
C785        H790   1.084       .  S
C786        C787   1.415       .  A
C787        C788   1.404       .  A
C787        C791   1.508       .  S
C788        H792   1.084       .  S
C789        H799   1.111       .  S
C789        H800   1.110       .  S
C789        H801   1.110       .  S
C791        H802   1.111       .  S
C791        H803   1.110       .  S
C791        H804   1.110       .  S
C805        C806   1.400       .  A
C805        C810   1.402       .  A
C805        H815   1.084       .  S
C806        C807   1.410       .  A
C806        C811   1.477       .  S
C807        C808   1.402       .  A
C807        C812   1.507       .  S
C808        C809   1.403       .  A
C808        H813   1.084       .  S
C809        C810   1.417       .  A
C810        C814   1.508       .  S
C811        C816   1.409       .  A
C811        C820   1.401       .  A
C812        H828   1.110       .  S
C812        H829   1.110       .  S
C812        H830   1.111       .  S
C814        H825   1.110       .  S
C814        H826   1.110       .  S
C814        H827   1.108       .  S
C816        C817   1.403       .  A
C816        C821   1.506       .  S
C817        C818   1.405       .  A
C817        H822   1.084       .  S
C818        C819   1.416       .  A
C819        C820   1.400       .  A
C819        C823   1.509       .  S
C820        H824   1.085       .  S
C821        H831   1.111       .  S
C821        H832   1.110       .  S
C821        H833   1.110       .  S
C823        H834   1.111       .  S
C823        H835   1.107       .  S
C823        H836   1.110       .  S
C837        C838   1.400       .  A
C837        C842   1.401       .  A
C837        H847   1.085       .  S
C838        C839   1.410       .  A
C838        C843   1.477       .  S
C839        C840   1.402       .  A
C839        C844   1.506       .  S
C840        C841   1.404       .  A
C840        H845   1.085       .  S
C841        C842   1.416       .  A
C842        C846   1.508       .  S
C843        C848   1.412       .  A
C843        C852   1.400       .  A
C844        H860   1.110       .  S
C844        H861   1.110       .  S
C844        H862   1.111       .  S
C846        H857   1.110       .  S
C846        H858   1.110       .  S
C846        H859   1.108       .  S
C848        C849   1.403       .  A
C848        C853   1.507       .  S
C849        C850   1.401       .  A
C849        H854   1.085       .  S
C850        C851   1.414       .  A
C851        C852   1.401       .  A
C851        C855   1.508       .  S
C852        H856   1.085       .  S
C853        H863   1.111       .  S
C853        H864   1.110       .  S
C853        H865   1.110       .  S
C855        H866   1.110       .  S
C855        H867   1.108       .  S
C855        H868   1.110       .  S
C869        C874   1.402       .  A
C869        H879   1.084       .  S
C870        C871   1.411       .  A
C870        C875   1.482       .  S
C871        C872   1.403       .  A
C871        C876   1.507       .  S
C872        H877   1.084       .  S
C873        C874   1.417       .  A
C874        C878   1.507       .  S
C875        C880   1.411       .  A
C876        H892   1.109       .  S
C876        H893   1.111       .  S
C876        H894   1.111       .  S
C878        H889   1.111       .  S
C878        H890   1.110       .  S
C878        H891   1.106       .  S
C880        C881   1.404       .  A
C880        C885   1.506       .  S
C881        H886   1.084       .  S
C882        C883   1.418       .  A
C883        C884   1.401       .  A
C883        C887   1.508       .  S
C884        H888   1.085       .  S
C885        H895   1.111       .  S
C885        H896   1.109       .  S
C885        H897   1.110       .  S
C887        H898   1.110       .  S
C887        H899   1.104       .  S
C887        H900   1.111       .  S
C901        C902   1.402       .  A
C901        C906   1.401       .  A
C901        H911   1.084       .  S
C902        C903   1.408       .  A
C902        C907   1.475       .  S
C903        C904   1.401       .  A
C903        C908   1.506       .  S
C904        C905   1.404       .  A
C904        H909   1.084       .  S
C905        C906   1.415       .  A
C906        C910   1.508       .  S
C907        C912   1.410       .  A
C907        C916   1.400       .  A
C908        H924   1.110       .  S
C908        H925   1.110       .  S
C908        H926   1.111       .  S
C910        H921   1.110       .  S
C910        H922   1.111       .  S
C910        H923   1.106       .  S
C912        C913   1.402       .  A
C912        C917   1.506       .  S
C913        C914   1.402       .  A
C913        H918   1.084       .  S
C914        C915   1.414       .  A
C915        C916   1.399       .  A
C915        C919   1.507       .  S
C916        H920   1.085       .  S
C917        H927   1.111       .  S
C917        H928   1.110       .  S
C917        H929   1.110       .  S
C919        H930   1.110       .  S
C919        H931   1.106       .  S
C919        H932   1.110       .  S
C933        C934   1.400       .  A
C933        C938   1.401       .  A
C933        H943   1.085       .  S
C934        C935   1.409       .  A
C934        C939   1.475       .  S
C935        C936   1.401       .  A
C935        C940   1.507       .  S
C936        C937   1.404       .  A
C936        H941   1.084       .  S
C937        C938   1.418       .  A
C938        C942   1.508       .  S
C939        C944   1.408       .  A
C939        C948   1.400       .  A
C940        H956   1.110       .  S
C940        H957   1.110       .  S
C940        H958   1.111       .  S
C942        H953   1.111       .  S
C942        H954   1.110       .  S
C942        H955   1.108       .  S
C944        C945   1.401       .  A
C944        C949   1.506       .  S
C945        C946   1.405       .  A
C945        H950   1.084       .  S
C946        C947   1.418       .  A
C947        C948   1.400       .  A
C947        C951   1.510       .  S
C948        H952   1.084       .  S
C949        H959   1.111       .  S
C949        H960   1.110       .  S
C949        H961   1.110       .  S
C951        H962   1.111       .  S
C951        H963   1.106       .  S
C951        H964   1.110       .  S
C965        C970   1.405       .  A
C965        H975   1.084       .  S
C966        C967   1.413       .  A
C966        C971   1.489       .  S
C967        C968   1.406       .  A
C967        C972   1.507       .  S
C968        H973   1.084       .  S
C969        C970   1.419       .  A
C970        C974   1.508       .  S
C971        C976   1.412       .  A
C972        H988   1.109       .  S
C972        H989   1.110       .  S
C972        H990   1.111       .  S
C974        H985   1.111       .  S
C974        H986   1.110       .  S
C974        H987   1.107       .  S
C976        C977   1.407       .  A
C976        C981   1.506       .  S
C977        H982   1.084   1_565  S
C978        C979   1.416   1_545  A
C979        C980   1.403       .  A
C979        C983   1.508   1_565  S
C980        H984   1.085       .  S
C981        H991   1.111       .  S
C981        H992   1.110       .  S
C981        H993   1.110       .  S
C983        H994   1.110       .  S
C983        H995   1.106       .  S
C983        H996   1.111       .  S
C997        C998   1.401       .  A
C997       C1002   1.404       .  A
C997       H1007   1.084       .  S
C998        C999   1.410       .  A
C998       C1003   1.479       .  S
C999       C1000   1.401       .  A
C999       C1004   1.507       .  S
C1000      C1001   1.404       .  A
C1000      H1005   1.085       .  S
C1001      C1002   1.417       .  A
C1002      C1006   1.508       .  S
C1003      C1008   1.409       .  A
C1003      C1012   1.400       .  A
C1004      H1020   1.110       .  S
C1004      H1021   1.110       .  S
C1004      H1022   1.111       .  S
C1006      H1017   1.111       .  S
C1006      H1018   1.111       .  S
C1006      H1019   1.109       .  S
C1008      C1009   1.403       .  A
C1008      C1013   1.506       .  S
C1009      C1010   1.406       .  A
C1009      H1014   1.085       .  S
C1010      C1011   1.417       .  A
C1011      C1012   1.404       .  A
C1011      C1015   1.508       .  S
C1012      H1016   1.085       .  S
C1013      H1023   1.111       .  S
C1013      H1024   1.110       .  S
C1013      H1025   1.111       .  S
C1015      H1026   1.107       .  S
C1015      H1027   1.111       .  S
C1015      H1028   1.111       .  S
C1029      C1030   1.402       .  A
C1029      C1034   1.403       .  A
C1029      H1039   1.084       .  S
C1030      C1031   1.409       .  A
C1030      C1035   1.479       .  S
C1031      C1032   1.402       .  A
C1031      C1036   1.506       .  S
C1032      C1033   1.405       .  A
C1032      H1037   1.084       .  S
C1033      C1034   1.416       .  A
C1034      C1038   1.509       .  S
C1035      C1040   1.411       .  A
C1035      C1044   1.400       .  A
C1036      H1052   1.110       .  S
C1036      H1053   1.110       .  S
C1036      H1054   1.111       .  S
C1038      H1049   1.110       .  S
C1038      H1050   1.111       .  S
C1038      H1051   1.106       .  S
C1040      C1041   1.406       .  A
C1040      C1045   1.505       .  S
C1041      C1042   1.404       .  A
C1041      H1046   1.084       .  S
C1042      C1043   1.414       .  A
C1043      C1044   1.399       .  A
C1043      C1047   1.508       .  S
C1044      H1048   1.085       .  S
C1045      H1055   1.111       .  S
C1045      H1056   1.110       .  S
C1045      H1057   1.110       .  S
C1047      H1058   1.110       .  S
C1047      H1059   1.108       .  S
C1047      H1060   1.110       .  S
C1061      C1066   1.404       .  A
C1061      H1071   1.084       .  S
C1062      C1063   1.410       .  A
C1062      C1067   1.482       .  S
C1063      C1064   1.402       .  A
C1063      C1068   1.507       .  S
C1064      H1069   1.084       .  S
C1065      C1066   1.419   1_554  A
C1066      C1070   1.508       .  S
C1067      C1072   1.411   1_655  A
C1068      H1084   1.109       .  S
C1068      H1085   1.111       .  S
C1068      H1086   1.111       .  S
C1070      H1081   1.111       .  S
C1070      H1082   1.110       .  S
C1070      H1083   1.107       .  S
C1072      C1073   1.404       .  A
C1072      C1077   1.506   1_455  S
C1073      H1078   1.084       .  S
C1074      C1075   1.416       .  A
C1075      C1076   1.403       .  A
C1075      C1079   1.508       .  S
C1076      H1080   1.084   1_455  S
C1077      H1087   1.111   1_655  S
C1077      H1088   1.109       .  S
C1077      H1089   1.110       .  S
C1079      H1090   1.108       .  S
C1079      H1091   1.110       .  S
C1079      H1092   1.111       .  S
C1093      C1094   1.401       .  A
C1093      C1098   1.403       .  A
C1093      H1103   1.084       .  S
C1094      C1095   1.409       .  A
C1094      C1099   1.478       .  S
C1095      C1096   1.401       .  A
C1095      C1100   1.506       .  S
C1096      C1097   1.403       .  A
C1096      H1101   1.084       .  S
C1097      C1098   1.417       .  A
C1098      C1102   1.509       .  S
C1099      C1104   1.411       .  A
C1099      C1108   1.399       .  A
C1100      H1116   1.110       .  S
C1100      H1117   1.110       .  S
C1100      H1118   1.111       .  S
C1102      H1113   1.109       .  S
C1102      H1114   1.111       .  S
C1102      H1115   1.111       .  S
C1104      C1105   1.404       .  A
C1104      C1109   1.506       .  S
C1105      C1106   1.403       .  A
C1105      H1110   1.085       .  S
C1106      C1107   1.417       .  A
C1107      C1108   1.400       .  A
C1107      C1111   1.508       .  S
C1108      H1112   1.085       .  S
C1109      H1119   1.111       .  S
C1109      H1120   1.110       .  S
C1109      H1121   1.110       .  S
C1111      H1122   1.110       .  S
C1111      H1124   1.111       .  S
C1125      C1126   1.401       .  A
C1125      C1130   1.400       .  A
C1125      H1135   1.085       .  S
C1126      C1127   1.410       .  A
C1126      C1131   1.476       .  S
C1127      C1128   1.403       .  A
C1127      C1132   1.506       .  S
C1128      C1129   1.402       .  A
C1128      H1133   1.084       .  S
C1129      C1130   1.413       .  A
C1130      C1134   1.508       .  S
C1131      C1136   1.409       .  A
C1131      C1140   1.402       .  A
C1132      H1148   1.110       .  S
C1132      H1149   1.110       .  S
C1132      H1150   1.111       .  S
C1134      H1145   1.110       .  S
C1134      H1146   1.110       .  S
C1134      H1147   1.108       .  S
C1136      C1137   1.402       .  A
C1136      C1141   1.506       .  S
C1137      C1138   1.404       .  A
C1137      H1142   1.084       .  S
C1138      C1139   1.414       .  A
C1139      C1140   1.401       .  A
C1139      C1143   1.509       .  S
C1140      H1144   1.084       .  S
C1141      H1151   1.111       .  S
C1141      H1152   1.110       .  S
C1141      H1153   1.111       .  S
C1143      H1154   1.110       .  S
C1143      H1155   1.107       .  S
C1143      H1156   1.110       .  S
