geometry optimzed in LAMMPS
_audit_creation_date              2020-12-01 
_audit_creation_method            'lammps2cif' 
_symmetry_space_group_name_H-M    'P1' 
_symmetry_Int_Tables_number       1 
_symmetry_cell_setting            triclinic 
loop_ 
_symmetry_equiv_pos_as_xyz 
  x,y,z 
_cell_length_a                    34.43191438 
_cell_length_b                    34.524846973139184 
_cell_length_c                    40.315080879733884 
_cell_angle_alpha                 91.12267676632064 
_cell_angle_beta                  91.44427485837406 
_cell_angle_gamma                 82.7489923071557 
loop_ 
_atom_site_label 
_atom_site_type_symbol 
_atom_site_fract_x 
_atom_site_fract_y 
_atom_site_fract_z 
_atom_site_charge 
C1          C  0.12010333  0.47780471  0.07098336     0.44000
N2          N  0.06102548  0.47992747  0.05223220     0.02900
C3          C  0.49827138  0.41867152  0.39671616    -0.05000
H4          H  0.08831065  0.02711872  0.40932352     0.08400
C5          C  0.48074332  0.12456511  0.47953412    -0.05400
Co6        Co  0.05437954  0.43616192  0.49277275     0.74200
N7          N  0.05710602  0.49067544  0.43618963    -0.24500
Co8        Co  0.49635532  0.00553965  0.45587098     0.74100
C9          C  0.00414030  0.11509678  0.44567304     0.44100
N10         N  0.49293424  0.07933648  0.05173804     0.02500
N11         N  0.49526784  0.06655444  0.45837198     0.02600
N12         N  0.02312685  0.37443163  0.44663279    -0.45400
H13         H  0.14438650  0.44277929  0.02502024     0.08300
N14         N  0.07983405  0.46800281  0.45667864     0.02900
N15         N  0.43504118  0.01340515  0.46207774     0.02600
C16         C  0.37257763  0.01462827  0.45578930     0.44200
N17         N  0.51285380  0.05597814  0.07340581    -0.24000
C18         C  0.02548316  0.36774962  0.02475288    -0.04900
N19         N  0.09473466  0.99501937  0.09545603    -0.45100
N20         N  0.42434269  0.49343964  0.39753849    -0.45300
C21         C  0.49860335  0.37697039  0.05546663     0.44000
N22         N  0.02247111  0.41201760  0.45444872     0.02900
N23         N  0.45286819  0.00289334  0.07095514    -0.24000
N24         N  0.08224114  0.46094890  0.02880268    -0.24500
N25         N  0.43201174  0.02734115  0.05067563     0.02500
H26         H  0.41922583  0.47320060  0.09350888     0.08400
H27         H  0.36075337  0.05136996  0.50337049     0.08400
N28         N  0.00147085  0.43501627  0.43300244    -0.24600
N29         N  0.47963401  0.08641620  0.48414299    -0.24200
N30         N  0.00348386  0.42482212  0.04463414     0.02900
C31         C  0.11684561  0.48071749  0.41726104     0.44300
C32         C  0.01782044  0.07036064  0.09920849    -0.05400
N33         N  0.42002939  0.03355731  0.48793692    -0.24200
H34         H  0.46902794  0.14800103  0.49604709     0.08400
N35         N  0.11620455  0.46078872  0.44584720    -0.45400
H36         H  0.03389757  0.06019905  0.12144719     0.08400
C37         C  0.38914388  0.00262612  0.07804827     0.44100
C38         C  0.12019890  0.45830797  0.03834161    -0.04900
Co39       Co  0.00010388  0.48582653  0.04943853     0.73800
N40         N  0.49345036  0.11675977  0.05912677    -0.45100
C41         C  0.51186212  0.37896252  0.40722811     0.44400
N42         N  0.48752852  0.41284447  0.06892470    -0.45100
Co43       Co  0.45781921  0.05771334  0.01509930     0.73900
C44         C  0.38090630  0.03567628  0.48615379    -0.05400
C45         C  0.09507704  0.00338341  0.42645210    -0.05000
N46         N  0.02441574  0.40629389  0.02082065    -0.24500
N47         N  0.01537421  0.07984970  0.43131349    -0.45300
H48         H  0.48189243  0.42850224  0.37452502     0.08400
C49         C  0.41131519  0.49128153  0.07218638    -0.05400
Cl50       Cl  0.01081411  0.99279820  0.00943302    -0.48400
C51         C  0.00269712  0.11006326  0.08977963     0.44100
H52         H  0.04213358  0.34526211  0.01000108     0.08300
N53         N  0.39388339  0.02789321  0.05403436    -0.45100
C54         C  0.99468410  0.25058889  0.16972110     0.81700
N55         N  0.99563451  0.21699059  0.15149710    -0.76900
C56         C  0.99517442  0.21795157  0.11777676     0.84200
N57         N  0.99388606  0.25281921  0.10245799    -0.76500
C58         C  0.99326178  0.28664118  0.12049860     0.84300
N59         N  0.99347150  0.28536048  0.15421277    -0.78200
C60         C  0.99916350  0.23671282  0.33567428     0.81700
N61         N  0.00264736  0.20095334  0.34970746    -0.76600
C62         C  0.00652805  0.19752107  0.38320760     0.84200
N63         N  0.00737815  0.23019932  0.40256701    -0.76500
C64         C  0.00394132  0.26606207  0.38868109     0.84300
N65         N  0.99980058  0.26912861  0.35515702    -0.78200
C66         C  0.25079029  0.48148846  0.16345175     0.81700
N67         N  0.21950180  0.47866790  0.14261659    -0.76600
C68         C  0.22377778  0.47935882  0.10910105     0.84200
N69         N  0.25940352  0.48316535  0.09671477    -0.76500
C70         C  0.29071481  0.48631223  0.11735434     0.84300
N71         N  0.28631263  0.48512180  0.15072636    -0.78200
C72         C  0.24782861  0.47600092  0.33008646     0.81700
N73         N  0.28191237  0.48174621  0.34615054    -0.76600
C74         C  0.28441537  0.48070966  0.37987499     0.84200
N75         N  0.25311713  0.47372289  0.39726727    -0.76500
C76         C  0.21906666  0.46826809  0.38167403     0.84300
N77         N  0.21615656  0.46974805  0.34791250    -0.78200
C78         C  0.24527366  0.47728736  0.29426081    -0.17000
C79         C  0.24447767  0.47839146  0.26422120     0.07100
C80         C  0.24491639  0.47956904  0.22899020     0.08900
C81         C  0.24663660  0.48045856  0.19902765    -0.17800
C82         C  0.99619312  0.24026102  0.30012550    -0.17000
C83         C  0.99490583  0.24348152  0.27030202     0.07100
C84         C  0.99448223  0.24694990  0.23531866     0.08900
C85         C  0.99456667  0.24920024  0.20543071    -0.17800
C86         C  0.00520515  0.15365080  0.43078022    -0.14900
C87         C  0.00945933  0.15833684  0.39812302    -0.30100
H88         H  0.99949926  0.17910608  0.44702755     0.14100
H89         H  0.51309659  0.13789089  0.38272685     0.14700
C90         C  0.99630850  0.33742096  0.39857986    -0.14900
C91         C  0.00638222  0.30113818  0.40998381    -0.30100
H92         H  0.98431332  0.34157361  0.37353438     0.14100
H93         H  0.52543094  0.30453146  0.42791512     0.14700
C94         C  0.00447404  0.14597071  0.11001815    -0.14900
C95         C  0.99474727  0.18178126  0.09748162    -0.30100
H96         H  0.52815154  0.15183841  0.13230724     0.14100
H97         H  0.98666848  0.18475517  0.07133083     0.14700
C98         C  0.00016482  0.32685786  0.07134834    -0.14900
C99         C  0.99282785  0.32468221  0.10383117    -0.30100
H100        H  0.00670922  0.30018722  0.05670043     0.14100
H101        H  0.48206805  0.35995148  0.11836929     0.14700
C102        C  0.31919433  0.48981760  0.39868576    -0.14900
C103        C  0.35353357  0.49266400  0.38492209    -0.30100
H104        H  0.31628595  0.49401227  0.42534328     0.14100
H105        H  0.30766765  0.02331949  0.45541388     0.14700
C106        C  0.14927325  0.47882420  0.39400615    -0.14900
C107        C  0.18556708  0.46344181  0.40241627    -0.30100
H108        H  0.14357871  0.49299496  0.37022009     0.14100
H109        H  0.15667640  0.02845446  0.39029168     0.14700
C110        C  0.33395517  0.50267332  0.07280698    -0.14900
C111        C  0.32955881  0.49058273  0.10390091    -0.30100
H112        H  0.30837525  0.51064084  0.05693081     0.14100
H113        H  0.36994003  0.97027507  0.13433388     0.14700
C114        C  0.15306403  0.48105662  0.09473367    -0.14900
C115        C  0.19062968  0.47528880  0.08564331    -0.30100
H116        H  0.14602364  0.48967120  0.12014625     0.14100
H117        H  0.20897302  0.97164877  0.07298847     0.14700
C118        C  0.12348404  0.48000097  0.57167915     0.44000
N119        N  0.06339131  0.48000549  0.55653987     0.02900
C120        C  0.48998051  0.42807984  0.90628890    -0.05000
H121        H  0.08863180  0.02832169  0.90914109     0.08400
C122        C  0.48564118  0.12519652  0.97697980    -0.05400
Co123      Co  0.05519386  0.43588125  0.98782042     0.74200
N124        N  0.06518658  0.48828669  0.93154299    -0.24500
Co125      Co  0.49982393  0.00809073  0.94647208     0.74100
C126        C  0.00186188  0.11946784  0.94291734     0.44100
N127        N  0.49064312  0.08421577  0.55729922     0.02500
N128        N  0.49905322  0.06901026  0.95217995     0.02600
N129        N  0.02977073  0.37388716  0.93893840    -0.45400
H130        H  0.14516013  0.44649686  0.52413039     0.08300
N131        N  0.08469446  0.46696507  0.95481087     0.02900
N132        N  0.43810887  0.01580826  0.95218335     0.02600
C133        C  0.37543767  0.01825204  0.94630559     0.44200
N134        N  0.51283688  0.06239667  0.57867646    -0.24000
C135        C  0.03665777  0.36735841  0.53797174    -0.04900
N136        N  0.10276476  0.97601732  0.57981603    -0.45100
N137        N  0.41914632  0.50555857  0.90628375    -0.45300
C138        C  0.51094617  0.37072891  0.55206680     0.44000
N139        N  0.02682010  0.41148601  0.94731896     0.02900
N140        N  0.45382223  0.01007337  0.58267716    -0.24000
N141        N  0.08334261  0.46236101  0.53171493    -0.24500
N142        N  0.43080957  0.03085018  0.56111914     0.02500
H143        H  0.42516646  0.46071413  0.58297194     0.08400
H144        H  0.36456918  0.05339551  0.99456130     0.08400
N145        N  0.00771370  0.43402610  0.92459801    -0.24600
N146        N  0.48399905  0.08685435  0.97905694    -0.24200
N147        N  0.00707475  0.42382530  0.55233169     0.02900
C148        C  0.12904970  0.48691980  0.92564803     0.44300
C149        C  0.03032100  0.05146427  0.59465501    -0.05400
N150        N  0.42343478  0.03521851  0.97851602    -0.24200
H151        H  0.47396133  0.14727299  0.99471442     0.08400
N152        N  0.12314199  0.46537299  0.95218822    -0.45400
H153        H  0.04798811  0.03888602  0.61527281     0.08400
C154        C  0.39147797  0.01140474  0.59571130     0.44100
C155        C  0.12173518  0.46108621  0.53894480    -0.04900
Co156      Co  0.00233517  0.48348546  0.55741505     0.73800
N157        N  0.48838930  0.12185317  0.56485310    -0.45100
C158        C  0.50252575  0.38810539  0.91657424     0.44400
N159        N  0.49678117  0.40694777  0.56236178    -0.45100
Co160      Co  0.45474558  0.05936003  0.52269932     0.73900
C161        C  0.38435818  0.03825288  0.97683646    -0.05400
C162        C  0.09690922  0.01041531  0.93051197    -0.05000
N163        N  0.02890215  0.40505055  0.52919752    -0.24500
N164        N  0.01476190  0.08312744  0.93169410    -0.45300
H165        H  0.47320038  0.43848296  0.88446046     0.08400
C166        C  0.41686127  0.47887247  0.56175534    -0.05400
Cl167      Cl  0.01004296  0.98202565  0.50233048    -0.48400
C168        C  0.01644644  0.09212852  0.58789825     0.44100
H169        H  0.05659012  0.34541975  0.52550406     0.08300
N170        N  0.39315473  0.03249127  0.56804027    -0.45100
C171        C  0.02850728  0.23583413  0.66111610     0.81700
N172        N  0.02440717  0.20105752  0.64583758    -0.76900
C173        C  0.02425881  0.19801076  0.61216292     0.84200
N174        N  0.02849422  0.22950111  0.59392486    -0.76500
C175        C  0.03259075  0.26423282  0.60863957     0.84300
N176        N  0.03225059  0.26770600  0.64245895    -0.78200
C177        C  0.02327530  0.23117156  0.82815100     0.81700
N178        N  0.02165409  0.19665528  0.84360761    -0.76600
C179        C  0.01927435  0.19564097  0.87730150     0.84200
N180        N  0.01903822  0.22938349  0.89533695    -0.76500
C181        C  0.02055251  0.26393385  0.88016759     0.84300
N182        N  0.02256829  0.26470575  0.84650680    -0.78200
C183        C  0.25958939  0.48451309  0.65693889     0.81700
N184        N  0.22678540  0.48260324  0.63779797    -0.76600
C185        C  0.22950160  0.47848394  0.60422376     0.84200
N186        N  0.26503963  0.47672089  0.59008129    -0.76500
C187        C  0.29781940  0.47880515  0.60913703     0.84300
N188        N  0.29498392  0.48245742  0.64257083    -0.78200
C189        C  0.25173633  0.50561066  0.82225463     0.81700
N190        N  0.28296748  0.50949912  0.84283734    -0.76600
C191        C  0.27826204  0.51183543  0.87632630     0.84200
N192        N  0.24240248  0.50982315  0.88889213    -0.76500
C193        C  0.21125491  0.50568397  0.86838864     0.84300
N194        N  0.21599841  0.50388706  0.83509019    -0.78200
C195        C  0.25613120  0.50250828  0.78688007    -0.17000
C196        C  0.25713199  0.49896204  0.75704883     0.07100
C197        C  0.25691045  0.49403343  0.72212593     0.08900
C198        C  0.25714364  0.48957050  0.69235127    -0.17800
C199        C  0.02529212  0.23256297  0.79230145    -0.17000
C200        C  0.02660518  0.23489002  0.76233789     0.07100
C201        C  0.02771649  0.23758881  0.72712562     0.08900
C202        C  0.02830771  0.23842921  0.69704643    -0.17800
C203        C  0.00596507  0.15649491  0.92600765    -0.14900
C204        C  0.01661817  0.15803461  0.89408489    -0.30100
H205        H  0.99851753  0.18342688  0.94009962     0.14100
H206        H  0.51518526  0.14720114  0.88139815     0.14700
C207        C  0.01080590  0.33589473  0.88839250    -0.14900
C208        C  0.02053077  0.29998462  0.90071066    -0.30100
H209        H  0.00176443  0.33929532  0.86248761     0.14100
H210        H  0.51788501  0.31271072  0.93516792     0.14700
C211        C  0.02396402  0.12660068  0.60777788    -0.14900
C212        C  0.01722053  0.16201523  0.59444253    -0.30100
H213        H  0.52400083  0.15830563  0.63754755     0.14100
H214        H  0.00741301  0.16481085  0.56862831     0.14700
C215        C  0.01906791  0.33332702  0.59373721    -0.14900
C216        C  0.03599460  0.29729011  0.58680801    -0.30100
H217        H  0.00444703  0.33935620  0.61719236     0.14100
H218        H  0.49056950  0.36372756  0.61544916     0.14700
C219        C  0.31120434  0.51705062  0.89950838    -0.14900
C220        C  0.34863553  0.51157597  0.89027880    -0.30100
H221        H  0.30439941  0.52457705  0.92518320     0.14100
H222        H  0.31089190  0.02904519  0.94797071     0.14700
C223        C  0.16784275  0.49162690  0.91303065    -0.14900
C224        C  0.17240343  0.50274198  0.88179970    -0.30100
H225        H  0.19322238  0.48402404  0.92924141     0.14100
H226        H  0.15476863  0.02931433  0.88789152     0.14700
C227        C  0.33973235  0.48902318  0.56235357    -0.14900
C228        C  0.33627473  0.47865893  0.59395712    -0.30100
H229        H  0.31376664  0.49739066  0.54700977     0.14100
H230        H  0.31598583  0.01597596  0.57361551     0.14700
C231        C  0.15795214  0.48333682  0.59354006    -0.14900
C232        C  0.19464362  0.47563648  0.58263259    -0.30100
H233        H  0.15285860  0.49275350  0.61910023     0.14100
H234        H  0.15416089  0.99847158  0.62445941     0.14700
C235        C  0.13220541  0.98526758  0.08643730     0.44000
N236        N  0.07251549  0.98393551  0.07062458     0.02900
C237        C  0.48157098  0.92069613  0.43335376    -0.05000
H238        H  0.06606728  0.51517888  0.38873274     0.08400
C239        C  0.47337537  0.62000840  0.44913642    -0.05400
Co240      Co  0.05955125  0.92560085  0.49354683     0.74200
N241        N  0.06858582  0.98528138  0.44234989    -0.24500
Co242      Co  0.50534483  0.50272730  0.42503203     0.74100
C243        C  0.99506501  0.61839775  0.43663705     0.44100
N244        N  0.47420501  0.58363066  0.03758139     0.02500
N245        N  0.49945440  0.56356549  0.43066199     0.02600
N246        N  0.02594742  0.87098046  0.44274504    -0.45400
H247        H  0.15526928  0.95241987  0.03911239     0.08300
N248        N  0.08790922  0.95801042  0.46110626     0.02900
N249        N  0.44518529  0.50609229  0.42256947     0.02600
C250        C  0.38664568  0.50255642  0.40560986     0.44200
N251        N  0.49284860  0.56001456  0.05989478    -0.24000
C252        C  0.03724106  0.87046569  0.03930557    -0.04900
N253        N  0.08242169  0.48999016  0.07799871    -0.45100
N254        N  0.40747064  0.00188518  0.44184317    -0.45300
C255        C  0.50925660  0.87398567  0.06845880     0.44000
N256        N  0.02598323  0.90740903  0.45380380     0.02900
N257        N  0.43652784  0.50509129  0.05200787    -0.24000
N258        N  0.09319988  0.96674915  0.04617382    -0.24500
N259        N  0.41665015  0.52750847  0.02958135     0.02500
H260        H  0.43657134  0.96419804  0.10830916     0.08400
H261        H  0.36100787  0.53548722  0.45211140     0.08400
N262        N  0.00744677  0.93331094  0.43338497    -0.24600
N263        N  0.47776735  0.58139074  0.45438109    -0.24200
N264        N  0.01707880  0.92567188  0.06352535     0.02900
C265        C  0.13350091  0.98414163  0.43809012     0.44300
C266        C  0.00624420  0.56833027  0.07962915    -0.05400
N267        N  0.42349833  0.52362306  0.44635419    -0.24200
H268        H  0.45464165  0.64167879  0.46301186     0.08400
N269        N  0.12636890  0.95641780  0.45921153    -0.45400
H270        H  0.01893157  0.55715400  0.10290545     0.08400
C271        C  0.37270303  0.50744266  0.05956586     0.44100
C272        C  0.13136915  0.96626012  0.05380586    -0.04900
Co273      Co  0.01172161  0.98677117  0.07010600     0.73800
N274        N  0.46999155  0.62072386  0.04791096    -0.45100
C275        C  0.49479009  0.88124101  0.44517865     0.44400
N276        N  0.50107759  0.90979700  0.08280229    -0.45100
Co277      Co  0.44557026  0.55994759  0.99639585     0.73900
C278        C  0.38575715  0.52265840  0.43791978    -0.05400
C279        C  0.07792794  0.50031622  0.41082957    -0.05000
N280        N  0.03850541  0.90901977  0.03920924    -0.24500
N281        N  0.00554869  0.58264582  0.42277305    -0.45300
H282        H  0.46373646  0.92983688  0.41175994     0.08400
C283        C  0.42820431  0.98596037  0.08968332    -0.05400
Cl284      Cl  0.00263591  0.49063565  0.98879249    -0.48400
C285        C  0.99222850  0.60843043  0.07074277     0.44100
H286        H  0.05182539  0.84924695  0.02224640     0.08300
N287        N  0.37824222  0.52954655  0.03319034    -0.45100
C288        C  0.97701882  0.74004493  0.16167478     0.81700
N289        N  0.97799391  0.70867355  0.14062979    -0.76900
C290        C  0.97919021  0.71362033  0.10718992     0.84200
N291        N  0.98011072  0.75011754  0.09521466    -0.76500
C292        C  0.97949479  0.78147293  0.11637637     0.84300
N293        N  0.97774487  0.77616162  0.14945088    -0.78200
C294        C  0.99631512  0.73813782  0.32702474     0.81700
N295        N  0.99872652  0.70277444  0.34146628    -0.76600
C296        C  0.00424538  0.69948159  0.37472627     0.84200
N297        N  0.00776563  0.73200371  0.39361298    -0.76500
C298        C  0.00551236  0.76767938  0.37943715     0.84300
N299        N  0.99963962  0.77070915  0.34595534    -0.78200
C300        C  0.26378195  0.98308820  0.17595654     0.81700
N301        N  0.23225805  0.98312844  0.15513128    -0.76600
C302        C  0.23718220  0.98033671  0.12178184     0.84200
N303        N  0.27383058  0.97805446  0.10953049    -0.76500
C304        C  0.30543421  0.97815897  0.13049428     0.84300
N305        N  0.30023148  0.98049651  0.16366528    -0.78200
C306        C  0.25610181  0.00524294  0.33998888     0.81700
N307        N  0.28997935  0.00181554  0.35797317    -0.76600
C308        C  0.28960066  0.00308532  0.39160615     0.84200
N309        N  0.25447716  0.00689739  0.40738253    -0.76500
C310        C  0.22022475  0.01022838  0.38898503     0.84300
N311        N  0.22146110  0.00965276  0.35543996    -0.78200
C312        C  0.25677126  0.00233931  0.30464469    -0.17000
C313        C  0.25672257  0.99845047  0.27498513     0.07100
C314        C  0.25702857  0.99280561  0.24040719     0.08900
C315        C  0.25879147  0.98789417  0.21089126    -0.17800
C316        C  0.99016416  0.74039031  0.29165129    -0.17000
C317        C  0.98536767  0.73887592  0.26189918     0.07100
C318        C  0.98067492  0.73604608  0.22699565     0.08900
C319        C  0.97798805  0.73551699  0.19707489    -0.17800
C320        C  0.99926432  0.65647958  0.42216211    -0.14900
C321        C  0.00517110  0.66065174  0.38976666    -0.30100
H322        H  0.99413651  0.68214665  0.43825269     0.14100
H323        H  0.47624847  0.70019937  0.43592889     0.14700
C324        C  0.00044234  0.83934062  0.39119872    -0.14900
C325        C  0.01015805  0.80224383  0.40092143    -0.30100
H326        H  0.98802637  0.84528183  0.36650853     0.14100
H327        H  0.46956694  0.86348888  0.38323226     0.14700
C328        C  0.99066118  0.64278992  0.09351554    -0.14900
C329        C  0.98025204  0.67975521  0.08370794    -0.30100
H330        H  0.49364392  0.64893501  0.12760469     0.14100
H331        H  0.97361068  0.68546563  0.05763240     0.14700
C332        C  0.00141652  0.82629596  0.07610550    -0.14900
C333        C  0.98382235  0.82093336  0.10457744    -0.30100
H334        H  0.01103433  0.80129851  0.06024367     0.14100
H335        H  0.48337790  0.85720073  0.12864818     0.14700
C336        C  0.32804907  0.00041525  0.40944810    -0.14900
C337        C  0.33302601  0.01235628  0.44091467    -0.30100
H338        H  0.35385584  0.99126177  0.39487960     0.14100
H339        H  0.35779993  0.48635978  0.35866613     0.14700
C340        C  0.17377846  0.98977354  0.42877642    -0.14900
C341        C  0.18111472  0.01262988  0.40386179    -0.30100
H342        H  0.19797179  0.97173750  0.44086482     0.14100
H343        H  0.19158921  0.45171093  0.42710679     0.14700
C344        C  0.35040258  0.99517267  0.08879324    -0.14900
C345        C  0.34503892  0.97892736  0.11788037    -0.30100
H346        H  0.32525399  0.00652351  0.07350216     0.14100
H347        H  0.35496477  0.48498976  0.12041125     0.14700
C348        C  0.16620937  0.98832598  0.10879801    -0.14900
C349        C  0.20324785  0.97957052  0.09876784    -0.30100
H350        H  0.16043931  0.99763632  0.13428603     0.14100
H351        H  0.19738983  0.46874398  0.05981682     0.14700
C352        C  0.13827392  0.96417665  0.56683127     0.44000
N353        N  0.07647515  0.96380220  0.55873553     0.02900
C354        C  0.48432766  0.92394567  0.92057598    -0.05000
H355        H  0.08326498  0.51997173  0.89027327     0.08400
C356        C  0.46901321  0.62879325  0.95372213    -0.05400
Co357      Co  0.06633711  0.94112538  0.00626644     0.74200
N358        N  0.07186820  0.99501395  0.95016009    -0.24500
Co359      Co  0.50107976  0.51112934  0.93422636     0.74100
C360        C  0.00352153  0.61529725  0.92058364     0.44100
N361        N  0.47575986  0.57432666  0.52888921     0.02500
N362        N  0.49745795  0.57163895  0.93936818     0.02600
N363        N  0.03952089  0.87764628  0.96171707    -0.45400
H364        H  0.15289985  0.93047487  0.51831602     0.08300
N365        N  0.09275667  0.97429953  0.97308753     0.02900
N366        N  0.44032460  0.51643211  0.93183916     0.02600
C367        C  0.38139862  0.51641765  0.91363890     0.44200
N368        N  0.49573321  0.55120402  0.55074845    -0.24000
C369        C  0.02555774  0.85731129  0.52742207    -0.04900
N370        N  0.08630879  0.49054793  0.58108271    -0.45100
N371        N  0.41005883  0.00531482  0.93179246    -0.45300
C372        C  0.50859752  0.88370453  0.58934115     0.44000
N373        N  0.03858210  0.91565894  0.96683300     0.02900
N374        N  0.44158364  0.49439153  0.54228794    -0.24000
N375        N  0.09276374  0.94503449  0.53279060    -0.24500
N376        N  0.42114048  0.51603453  0.51972983     0.02500
H377        H  0.44214371  0.97941593  0.62684323     0.08400
H378        H  0.35641427  0.55039175  0.95993588     0.08400
N379        N  0.01628839  0.93657132  0.94494387    -0.24600
N380        N  0.47498385  0.59077072  0.96201157    -0.24200
N381        N  0.01463123  0.91264220  0.55375943     0.02900
C382        C  0.13625082  0.99673579  0.94415782     0.44300
C383        C  0.00958821  0.56441670  0.58791169    -0.05400
N384        N  0.41885255  0.53468275  0.95546316    -0.24200
H385        H  0.44884788  0.65100471  0.96565879     0.08400
N386        N  0.13099906  0.97436735  0.97025909    -0.45400
H387        H  0.02574009  0.55304876  0.60973188     0.08400
C388        C  0.37802752  0.49331631  0.54849713     0.44100
C389        C  0.13176991  0.94348848  0.53592866    -0.04900
Co390      Co  0.01540274  0.97198805  0.56259432     0.73800
N391        N  0.46895082  0.61094052  0.54010568    -0.45100
C392        C  0.49785351  0.88391304  0.93106330     0.44400
N393        N  0.50267428  0.92105853  0.60013441    -0.45100
Co394      Co  0.44888972  0.54961921  0.48744967     0.73900
C395        C  0.38091748  0.53593885  0.94627476    -0.05400
C396        C  0.09074609  0.50207226  0.91178450    -0.05000
N397        N  0.03030392  0.89519988  0.52695367    -0.24500
N398        N  0.01499064  0.57821663  0.91061254    -0.45300
H399        H  0.46523189  0.93393515  0.89994066     0.08400
C400        C  0.43156198  0.99697832  0.60576065    -0.05400
Cl401      Cl  0.00023516  0.48963386  0.49718512    -0.48400
C402        C  0.99358107  0.60415834  0.58034073     0.44100
H403        H  0.03639278  0.83532231  0.50927380     0.08300
N404        N  0.38287670  0.51628703  0.52262684    -0.45100
C405        C  0.98560596  0.73780663  0.66734627     0.81700
N406        N  0.98443677  0.70543901  0.64787618    -0.76900
C407        C  0.98332359  0.70851675  0.61427923     0.84200
N408        N  0.98371995  0.74381405  0.60043601    -0.76500
C409        C  0.98546502  0.77614996  0.61976748     0.84300
N410        N  0.98621489  0.77311954  0.65329383    -0.78200
C411        C  0.99107846  0.74441298  0.83275507     0.81700
N412        N  0.99334219  0.71365801  0.85344720    -0.76600
C413        C  0.99554153  0.71948083  0.88687847     0.84200
N414        N  0.99573322  0.75634151  0.89934527    -0.76500
C415        C  0.99381410  0.78725853  0.87860174     0.84300
N416        N  0.99125398  0.78109283  0.84533743    -0.78200
C417        C  0.25394526  0.01437943  0.67180150     0.81700
N418        N  0.21994820  0.00689535  0.65705753    -0.76600
C419        C  0.21780529  0.00006701  0.62392270     0.84200
N420        N  0.25017563  0.00130141  0.60526272    -0.76500
C421        C  0.28454948  0.00888436  0.62009213     0.84300
N422        N  0.28619904  0.01524398  0.65345653    -0.78200
C423        C  0.25228470  0.02083684  0.83629053     0.81700
N424        N  0.28699244  0.01389953  0.85275699    -0.76600
C425        C  0.28848893  0.00935370  0.88604217     0.84200
N426        N  0.25430225  0.01096283  0.90307941    -0.76500
C427        C  0.21902159  0.01739730  0.88622284     0.84300
N428        N  0.21847407  0.02259507  0.85292272    -0.78200
C429        C  0.25165568  0.02470425  0.80107853    -0.17000
C430        C  0.25288265  0.02569248  0.77136319     0.07100
C431        C  0.25489233  0.02408428  0.73659728     0.08900
C432        C  0.25561213  0.02058621  0.70690861    -0.17800
C433        C  0.98912137  0.73832948  0.79749136    -0.17000
C434        C  0.98797108  0.73527961  0.76767266     0.07100
C435        C  0.98706538  0.73403768  0.73267068     0.08900
C436        C  0.98642764  0.73483482  0.70279707    -0.17800
C437        C  0.00586643  0.64918002  0.89930710    -0.14900
C438        C  0.99642088  0.68630169  0.90970720    -0.30100
H439        H  0.01518736  0.64313376  0.87396492     0.14100
H440        H  0.46509019  0.70816720  0.93080808     0.14700
C441        C  0.01018273  0.83381524  0.92208414    -0.14900
C442        C  0.99589833  0.82734016  0.89155571    -0.30100
H443        H  0.01993915  0.80923095  0.93794559     0.14100
H444        H  0.47234566  0.86445653  0.86892563     0.14700
C445        C  0.99464412  0.63814471  0.60252956    -0.14900
C446        C  0.98191296  0.67423074  0.59240906    -0.30100
H447        H  0.49579321  0.63929537  0.61938888     0.14100
H448        H  0.97180475  0.67899221  0.56686463     0.14700
C449        C  0.99733120  0.81633403  0.57248310    -0.14900
C450        C  0.98861168  0.81396367  0.60459088    -0.30100
H451        H  0.00140246  0.79026599  0.55678140     0.14100
H452        H  0.50250900  0.81197547  0.56745094     0.14700
C453        C  0.32792379  0.00364473  0.90216392    -0.14900
C454        C  0.33518076  0.01647612  0.93289275    -0.30100
H455        H  0.35252102  0.99315666  0.88662209     0.14100
H456        H  0.35574298  0.50228146  0.86501239     0.14700
C457        C  0.17565857  0.00124091  0.93149915    -0.14900
C458        C  0.18056485  0.01787324  0.90235077    -0.30100
H459        H  0.20114518  0.98822348  0.94556241     0.14100
H460        H  0.14720649  0.50777090  0.86498646     0.14700
C461        C  0.35584547  0.00738316  0.61423446    -0.14900
C462        C  0.31971407  0.01128252  0.60013935    -0.30100
H463        H  0.35976014  0.00008382  0.64030130     0.14100
H464        H  0.36216623  0.47294675  0.60991079     0.14700
C465        C  0.17644564  0.97375743  0.57987624    -0.14900
C466        C  0.17992524  0.99157166  0.60939044    -0.30100
H467        H  0.20220356  0.96526497  0.56514304     0.14100
H468        H  0.19947753  0.46763984  0.55673599     0.14700
C469        C  0.61800725  0.49456895  0.07371062     0.44000
N470        N  0.55832406  0.49438117  0.05728026     0.02900
C471        C  0.98675370  0.41276187  0.40944090    -0.05000
H472        H  0.57386566  0.03126979  0.41091518     0.08400
C473        C  0.98513582  0.10829596  0.47642029    -0.05400
Co474      Co  0.55820332  0.44416349  0.48370407     0.74200
N475        N  0.56547789  0.49925075  0.42876671    -0.24500
Co476      Co  0.00667886  0.99342109  0.44220349     0.74100
C477        C  0.49845849  0.12666100  0.44736496     0.44100
N478        N  0.98555698  0.07009524  0.05241135     0.02500
N479        N  0.00519877  0.05337845  0.45178471     0.02600
N480        N  0.53186783  0.38164072  0.43623878    -0.45400
H481        H  0.64106676  0.46040916  0.02692449     0.08300
N482        N  0.58589368  0.47724585  0.45107123     0.02900
N483        N  0.94528185  0.00055102  0.44451803     0.02600
C484        C  0.88405905  0.00298910  0.43133902     0.44200
N485        N  0.00590322  0.04764652  0.07457758    -0.24000
C486        C  0.52120495  0.38222366  0.02636506    -0.04900
N487        N  0.60082699  0.00089888  0.08526547    -0.45100
N488        N  0.91502977  0.49340548  0.41127975    -0.45300
C489        C  0.00349118  0.36396323  0.05459340     0.44000
N490        N  0.53052975  0.41943403  0.44339609     0.02900
N491        N  0.95114875  0.99101349  0.06958240    -0.24000
N492        N  0.57905622  0.47596617  0.03334380    -0.24500
N493        N  0.92895418  0.01308147  0.04827407     0.02500
H494        H  0.91975410  0.46029221  0.08548377     0.08400
H495        H  0.86578337  0.03219325  0.48152506     0.08400
N496        N  0.51101429  0.44174099  0.42074918    -0.24600
N497        N  0.98662376  0.06942621  0.47788430    -0.24200
N498        N  0.50128148  0.43822847  0.04929620     0.02900
C499        C  0.62856207  0.50220324  0.42374312     0.44300
C500        C  0.52818703  0.07813939  0.09689452    -0.05400
N501        N  0.92709081  0.01632642  0.47096778    -0.24200
H502        H  0.96996095  0.12921692  0.49349178     0.08400
N503        N  0.62404765  0.47819108  0.44895091    -0.45400
H504        H  0.54503043  0.06742303  0.11859553     0.08400
C505        C  0.88993088  0.00018272  0.08645130     0.44100
C506        C  0.61718965  0.47470121  0.04140442    -0.04900
Co507      Co  0.49726565  0.49930851  0.05525963     0.73800
N508        N  0.98265965  0.10770020  0.06070239    -0.45100
C509        C  0.00082295  0.37280091  0.41867877     0.44400
N510        N  0.99106912  0.40046796  0.06596249    -0.45100
Co511      Co  0.95588273  0.04517444  0.01305495     0.73900
C512        C  0.88816767  0.01895076  0.46503659    -0.05400
C513        C  0.58253267  0.01156413  0.43106432    -0.05000
N514        N  0.52173625  0.42080274  0.02475649    -0.24500
N515        N  0.50648560  0.08965946  0.43539967    -0.45300
H516        H  0.96921887  0.42333360  0.38805586     0.08400
C517        C  0.91303977  0.47866742  0.06415883    -0.05400
Cl518      Cl  0.50725896  0.00190113  0.00768339    -0.48400
C519        C  0.51559219  0.11841829  0.08699369     0.44100
H520        H  0.53670039  0.36041211  0.01024483     0.08300
N521        N  0.89195584  0.01989682  0.05787811    -0.45100
C522        C  0.49852140  0.25751272  0.16625086     0.81700
N523        N  0.50432215  0.22446682  0.14744530    -0.76900
C524        C  0.50396108  0.22632004  0.11386051     0.84200
N525        N  0.49783064  0.26177746  0.09911930    -0.76500
C526        C  0.49227067  0.29525264  0.11788071     0.84300
N527        N  0.49249715  0.29288362  0.15152172    -0.78200
C528        C  0.50916031  0.23763133  0.33107882     0.81700
N529        N  0.50954285  0.20319840  0.34692252    -0.76600
C530        C  0.51177595  0.20219719  0.38064789     0.84200
N531        N  0.51399131  0.23596813  0.39832260    -0.76500
C532        C  0.51359837  0.27048174  0.38252468     0.84300
N533        N  0.51107817  0.27106885  0.34887228    -0.78200
C534        C  0.75428814  0.50395546  0.15822470     0.81700
N535        N  0.72129914  0.50161717  0.13942582    -0.76600
C536        C  0.72402781  0.49386189  0.10624384     0.84200
N537        N  0.75976807  0.48878065  0.09217482    -0.76500
C538        C  0.79269317  0.49117350  0.11096730     0.84300
N539        N  0.78981003  0.49851554  0.14399172    -0.78200
C540        C  0.75047526  0.52684486  0.32278629     0.81700
N541        N  0.78200109  0.52632178  0.34389313    -0.76600
C542        C  0.77672403  0.52685824  0.37729859     0.84200
N543        N  0.74033535  0.52720158  0.38915446    -0.76500
C544        C  0.70903833  0.52698483  0.36818321     0.84300
N545        N  0.71411951  0.52704669  0.33498490    -0.78200
C546        C  0.75513254  0.52515985  0.28750371    -0.17000
C547        C  0.75525145  0.52234013  0.25765977     0.07100
C548        C  0.75326689  0.51740377  0.22284706     0.08900
C549        C  0.75220701  0.51184327  0.19324866    -0.17800
C550        C  0.50612144  0.23926438  0.29550746    -0.17000
C551        C  0.50349858  0.24341948  0.26585972     0.07100
C552        C  0.50079840  0.24977466  0.23131616     0.08900
C553        C  0.49922859  0.25458706  0.20174008    -0.17800
C554        C  0.50358494  0.16311730  0.43023921    -0.14900
C555        C  0.51050519  0.16460923  0.39764542    -0.30100
H556        H  0.49918633  0.19002038  0.44484746     0.14100
H557        H  0.01308371  0.13288313  0.38167116     0.14700
C558        C  0.50778171  0.34246943  0.38846768    -0.14900
C559        C  0.51642758  0.30694062  0.40192973    -0.30100
H560        H  0.49704782  0.34508738  0.36293166     0.14100
H561        H  0.01677332  0.29704669  0.43551241     0.14700
C562        C  0.51857842  0.15456435  0.10648414    -0.14900
C563        C  0.50769041  0.19006055  0.09343904    -0.30100
H564        H  0.01442464  0.14275005  0.13572371     0.14100
H565        H  0.49963079  0.19247483  0.06724973     0.14700
C566        C  0.49516852  0.33871860  0.07018973    -0.14900
C567        C  0.48798888  0.33428038  0.10238604    -0.30100
H568        H  0.50281931  0.31306336  0.05452216     0.14100
H569        H  0.98832023  0.35127878  0.11885869     0.14700
C570        C  0.80958465  0.52583835  0.40135561    -0.14900
C571        C  0.84608407  0.51137069  0.39363550    -0.30100
H572        H  0.80292110  0.53482215  0.42678006     0.14100
H573        H  0.85345267  0.99711695  0.38346174     0.14700
C574        C  0.66653828  0.50947053  0.41153376    -0.14900
C575        C  0.67027800  0.52370824  0.38121960    -0.30100
H576        H  0.69222335  0.50059035  0.42709733     0.14100
H577        H  0.64359657  0.02064217  0.38282419     0.14700
C578        C  0.83610401  0.49429687  0.06388473    -0.14900
C579        C  0.83151687  0.48700889  0.09598664    -0.30100
H580        H  0.81075305  0.50309982  0.04794870     0.14100
H581        H  0.81304326  0.02317630  0.07452465     0.14700
C582        C  0.65226143  0.49945910  0.09546957    -0.14900
C583        C  0.68905082  0.49011734  0.08504701    -0.30100
H584        H  0.64701834  0.51107504  0.12040765     0.14100
H585        H  0.65460444  0.01652231  0.13273861     0.14700
C586        C  0.62221458  0.48428469  0.56689130     0.44000
N587        N  0.56312684  0.48814345  0.54795593     0.02900
C588        C  0.99672687  0.41142353  0.89949421    -0.05000
H589        H  0.57842864  0.03537564  0.90347772     0.08400
C590        C  0.98111137  0.11517718  0.97357758    -0.05400
Co591      Co  0.55215002  0.45144100  0.99258900     0.74200
N592        N  0.56193314  0.50550261  0.93764722    -0.24500
Co593      Co  0.00994722  0.99775661  0.94849193     0.74100
C594        C  0.50310523  0.12986316  0.94520207     0.44100
N595        N  0.99316061  0.05641471  0.55032111     0.02500
N596        N  0.00361908  0.05852561  0.95340602     0.02600
N597        N  0.52376461  0.39001457  0.94502589    -0.45400
H598        H  0.64595655  0.44975219  0.52053838     0.08300
N599        N  0.58144775  0.48338219  0.96035792     0.02900
N600        N  0.94835740  0.00072412  0.94888994     0.02600
C601        C  0.88798094  0.00231859  0.93292628     0.44200
N602        N  0.01464828  0.03156973  0.56991057    -0.24000
C603        C  0.53267796  0.37427767  0.52194608    -0.04900
N604        N  0.60269733  0.00818799  0.59027760    -0.45100
N605        N  0.92054972  0.49087826  0.90109718    -0.45300
C606        C  0.01706660  0.36524180  0.56975494     0.44000
N607        N  0.52396252  0.42765545  0.95213511     0.02900
N608        N  0.95460221  0.98088603  0.56566566    -0.24000
N609        N  0.58433863  0.46956910  0.52435211    -0.24500
N610        N  0.93244134  0.00415601  0.54520182     0.02500
H611        H  0.92561407  0.44888385  0.59419082     0.08400
H612        H  0.86638741  0.03618429  0.98014475     0.08400
N613        N  0.50444928  0.45050449  0.92991836    -0.24600
N614        N  0.98336758  0.07645352  0.97795285    -0.24200
N615        N  0.50797526  0.43102551  0.54044486     0.02900
C616        C  0.62595303  0.50382362  0.93169007     0.44300
C617        C  0.52703384  0.08549840  0.60184510    -0.05400
N618        N  0.92816647  0.01879570  0.97342972    -0.24200
H619        H  0.96500151  0.13746815  0.98888498     0.08400
N620        N  0.61988320  0.48143749  0.95760533    -0.45400
H621        H  0.54380576  0.07575388  0.62386030     0.08400
C622        C  0.89397462  0.99229978  0.58393676     0.44100
C623        C  0.62214126  0.46593417  0.53392879    -0.04900
Co624      Co  0.50220785  0.49115371  0.54580700     0.73800
N625        N  0.99349545  0.09310915  0.56020425    -0.45100
C626        C  0.01109682  0.37163306  0.90919526     0.44400
N627        N  0.99979104  0.40128591  0.57692381    -0.45100
Co628      Co  0.95915425  0.03701359  0.51117767     0.73900
C629        C  0.88977315  0.02091102  0.96571470    -0.05400
C630        C  0.58669749  0.01523892  0.92340826    -0.05000
N631        N  0.52949579  0.41282462  0.51688151    -0.24500
N632        N  0.51038799  0.09394836  0.93076770    -0.45300
H633        H  0.98241885  0.42174715  0.87653929     0.08400
C634        C  0.91696153  0.46913334  0.57444221    -0.05400
Cl635      Cl  0.50507169  0.00364590  0.51701427    -0.48400
C636        C  0.51100630  0.12477213  0.59237645     0.44100
H637        H  0.55047472  0.35196960  0.50787261     0.08300
N638        N  0.89598464  0.01230901  0.55564159    -0.45100
C639        C  0.49402236  0.26604882  0.67055087     0.81700
N640        N  0.49531714  0.23178611  0.65330453    -0.76900
C641        C  0.49632006  0.23151184  0.61966483     0.84200
N642        N  0.49629238  0.26538753  0.60348233    -0.76500
C643        C  0.49567112  0.29968511  0.62048980     0.84300
N644        N  0.49426994  0.30008367  0.65417906    -0.78200
C645        C  0.50311275  0.25090644  0.83565172     0.81700
N646        N  0.50684000  0.21518356  0.84967546    -0.76600
C647        C  0.51016146  0.21184613  0.88317995     0.84200
N648        N  0.51012560  0.24470278  0.90257832    -0.76500
C649        C  0.50640179  0.28058098  0.88856409     0.84300
N650        N  0.50282798  0.28340483  0.85504847    -0.78200
C651        C  0.75184429  0.47268123  0.66073620     0.81700
N652        N  0.72029679  0.47398824  0.63966898    -0.76600
C653        C  0.72559863  0.46989313  0.60638304     0.84200
N654        N  0.76244766  0.46508817  0.59450128    -0.76500
C655        C  0.79400253  0.46416210  0.61553145     0.84300
N656        N  0.78852908  0.46785972  0.64864253    -0.78200
C657        C  0.74579363  0.50620479  0.82413173     0.81700
N658        N  0.77902615  0.50624634  0.84303291    -0.76600
C659        C  0.77671342  0.51111354  0.87654735     0.84200
N660        N  0.74108493  0.51541502  0.89086885    -0.76500
C661        C  0.70788660  0.51517880  0.87194589     0.84300
N662        N  0.71040959  0.51079738  0.83859198    -0.78200
C663        C  0.74766743  0.49951834  0.78900030    -0.17000
C664        C  0.74704522  0.49301346  0.75955927     0.07100
C665        C  0.74601382  0.48511712  0.72514855     0.08900
C666        C  0.74689747  0.47884665  0.69568459    -0.17800
C667        C  0.49957371  0.25455538  0.80028327    -0.17000
C668        C  0.49694852  0.25857780  0.77065082     0.07100
C669        C  0.49465130  0.26315914  0.73591791     0.08900
C670        C  0.49371344  0.26576061  0.70613123    -0.17800
C671        C  0.50691465  0.16794439  0.93038541    -0.14900
C672        C  0.51215491  0.17259152  0.89792155    -0.30100
H673        H  0.50216940  0.19346683  0.94665646     0.14100
H674        H  0.02226259  0.13114642  0.87957141     0.14700
C675        C  0.49768476  0.35216412  0.89734406    -0.14900
C676        C  0.50775724  0.31614698  0.90951846    -0.30100
H677        H  0.48608486  0.35565012  0.87211757     0.14100
H678        H  0.02755452  0.29678531  0.92703174     0.14700
C679        C  0.51161931  0.16051196  0.61248845    -0.14900
C680        C  0.49714367  0.19518949  0.60019564    -0.30100
H681        H  0.03608370  0.12283280  0.63282270     0.14100
H682        H  0.48686906  0.19729411  0.57448131     0.14700
C683        C  0.50855202  0.33502672  0.57055493    -0.14900
C684        C  0.49740448  0.33597984  0.60234357    -0.30100
H685        H  0.51740715  0.30734889  0.55792119     0.14100
H686        H  0.04847116  0.29077411  0.56254730     0.14700
C687        C  0.81211641  0.51219993  0.89784933    -0.14900
C688        C  0.84867604  0.50162525  0.88717021    -0.30100
H689        H  0.80767139  0.52157210  0.92348272     0.14100
H690        H  0.85975919  0.99574712  0.88392348     0.14700
C691        C  0.66483881  0.50641855  0.91824072    -0.14900
C692        C  0.66918132  0.51766225  0.88705438    -0.30100
H693        H  0.69036972  0.49599916  0.93345197     0.14100
H694        H  0.64964084  0.02672839  0.87718425     0.14700
C695        C  0.83948545  0.47476255  0.57191653    -0.14900
C696        C  0.83382183  0.46323923  0.60276489    -0.30100
H697        H  0.81455923  0.48304589  0.55538565     0.14100
H698        H  0.81821560  0.01967403  0.57238377     0.14700
C699        C  0.65517008  0.48389374  0.59104833    -0.14900
C700        C  0.69214268  0.47118901  0.58265585    -0.30100
H701        H  0.64878850  0.49423817  0.61618007     0.14100
H702        H  0.65948060  0.02595945  0.63438285     0.14700
C703        C  0.63611684  0.99063133  0.07150697     0.44000
N704        N  0.57468216  0.98812871  0.06437166     0.02900
C705        C  0.99341811  0.91423949  0.40723707    -0.05000
H706        H  0.58145499  0.53540432  0.38965883     0.08400
C707        C  0.97442059  0.61304452  0.46680563    -0.05400
Co708      Co  0.55465718  0.94720666  0.51186514     0.74200
N709        N  0.55799715  0.99736077  0.45206711    -0.24500
Co710      Co  0.99721394  0.49592980  0.43698319     0.74100
C711        C  0.49464826  0.62436827  0.41875953     0.44100
N712        N  0.97905284  0.56992904  0.03058210     0.02500
N713        N  0.99311460  0.55714084  0.44300207     0.02600
N714        N  0.51755225  0.88503490  0.47238326    -0.45400
H715        H  0.65084666  0.95744216  0.02266920     0.08300
N716        N  0.57938521  0.97465561  0.47342430     0.02900
N717        N  0.93710564  0.50019660  0.43751024     0.02600
C718        C  0.87827558  0.50845187  0.41843744     0.44200
N719        N  0.99677367  0.54660354  0.05345373    -0.24000
C720        C  0.52942846  0.87855788  0.03795660    -0.04900
N721        N  0.58049031  0.50568237  0.08210437    -0.45100
N722        N  0.92066179  0.99266685  0.42025459    -0.45300
C723        C  0.01199045  0.86452567  0.06642281     0.44000
N724        N  0.51840983  0.92288646  0.47745224     0.02900
N725        N  0.93933869  0.49243018  0.04510330    -0.24000
N726        N  0.59087604  0.97017487  0.03797626    -0.24500
N727        N  0.92055537  0.51518541  0.02238721     0.02500
H728        H  0.94010302  0.96708070  0.11687195     0.08400
H729        H  0.85663791  0.54402787  0.46500919     0.08400
N730        N  0.49762380  0.94454858  0.45505058    -0.24600
N731        N  0.97432445  0.57442418  0.46851086    -0.24200
N732        N  0.51473656  0.93460470  0.06259342     0.02900
C733        C  0.62208866  0.99516247  0.44237356     0.44300
C734        C  0.50242345  0.58120746  0.08634186    -0.05400
N735        N  0.91729158  0.51973835  0.46136496    -0.24200
H736        H  0.95994597  0.63469838  0.48363855     0.08400
N737        N  0.61743445  0.97288087  0.46861272    -0.45400
H738        H  0.51576773  0.56959742  0.10925338     0.08400
C739        C  0.87514068  0.49532597  0.05030806     0.44100
C740        C  0.62971601  0.97025955  0.04038400    -0.04900
Co741      Co  0.51385793  0.99523981  0.06879559     0.73800
N742        N  0.97517470  0.60725710  0.04017567    -0.45100
C743        C  0.00555867  0.87295282  0.41362123     0.44400
N744        N  0.00051187  0.89988091  0.08067661    -0.45100
Co745      Co  0.95066606  0.54609056  0.98979094     0.73900
C746        C  0.87946430  0.52620075  0.45169984    -0.05400
C747        C  0.58991355  0.51615926  0.41017123    -0.05000
N748        N  0.53149844  0.91687056  0.03637070    -0.24500
N749        N  0.50936465  0.58817469  0.40849085    -0.45300
H750        H  0.97798315  0.92770040  0.38586080     0.08400
C751        C  0.92910144  0.98143281  0.09427176    -0.05400
Cl752      Cl  0.49901265  0.50567197  0.99465811    -0.48400
C753        C  0.48763185  0.62130914  0.07832869     0.44100
H754        H  0.54127150  0.85656635  0.02022236     0.08300
N755        N  0.88202819  0.51771715  0.02464121    -0.45100
C756        C  0.47521401  0.75304810  0.16980518     0.81700
N757        N  0.47542922  0.72155842  0.14892004    -0.76900
C758        C  0.47860968  0.72591274  0.11557936     0.84200
N759        N  0.48196319  0.76181926  0.10356840    -0.76500
C760        C  0.48217706  0.79328312  0.12443007     0.84300
N761        N  0.47860447  0.78870462  0.15748292    -0.78200
C762        C  0.47436454  0.75890469  0.33568197     0.81700
N763        N  0.47791314  0.72671550  0.35487555    -0.76600
C764        C  0.48007081  0.73036425  0.38851152     0.84200
N765        N  0.47894013  0.76648146  0.40274168    -0.76500
C766        C  0.47579987  0.79887666  0.38364750     0.84300
N767        N  0.47331673  0.79491108  0.35008407    -0.78200
C768        C  0.76051375  0.02009330  0.17719840     0.81700
N769        N  0.72424485  0.01828996  0.16376758    -0.76600
C770        C  0.71884765  0.01571399  0.13040846     0.84200
N771        N  0.75005187  0.01541520  0.11036061    -0.76500
C772        C  0.78656035  0.01714342  0.12337485     0.84300
N773        N  0.79183642  0.01922137  0.15703437    -0.78200
C774        C  0.75047867  0.01726832  0.34273631     0.81700
N775        N  0.78184725  0.01438132  0.36400848    -0.76600
C776        C  0.77706161  0.01166547  0.39725893     0.84200
N777        N  0.74027648  0.01162181  0.40905000    -0.76500
C778        C  0.70852050  0.01430737  0.38780424     0.84300
N779        N  0.71391463  0.01730754  0.35467878    -0.78200
C780        C  0.75612710  0.01975427  0.30749971    -0.17000
C781        C  0.76068011  0.02115834  0.27788179     0.07100
C782        C  0.76455826  0.02188965  0.24291025     0.08900
C783        C  0.76513492  0.02161109  0.21288572    -0.17800
C784        C  0.47249206  0.75480061  0.30008549    -0.17000
C785        C  0.47163161  0.75166991  0.27018118     0.07100
C786        C  0.47160401  0.74912605  0.23507508     0.08900
C787        C  0.47261342  0.74904266  0.20513605    -0.17800
C788        C  0.49369495  0.65931728  0.39805434    -0.14900
C789        C  0.48282073  0.69565161  0.40982952    -0.30100
H790        H  0.50231903  0.65487784  0.37239158     0.14100
H791        H  0.00785831  0.63510837  0.37339858     0.14700
C792        C  0.48910203  0.84290815  0.43034199    -0.14900
C793        C  0.47667984  0.83818214  0.39885186    -0.30100
H794        H  0.49816586  0.81744068  0.44538358     0.14100
H795        H  0.02114391  0.79678639  0.42613237     0.14700
C796        C  0.48641676  0.65508109  0.10168891    -0.14900
C797        C  0.47854383  0.69230493  0.09201394    -0.30100
H798        H  0.99913038  0.63726659  0.11929769     0.14100
H799        H  0.47352034  0.69841852  0.06580727     0.14700
C800        C  0.50036152  0.83644598  0.08112439    -0.14900
C801        C  0.48771670  0.83212323  0.11183544    -0.30100
H802        H  0.50623721  0.81108953  0.06479388     0.14100
H803        H  0.97624349  0.84564942  0.12128914     0.14700
C804        C  0.81153606  0.00978067  0.42055623    -0.14900
C805        C  0.84855679  0.00301850  0.40970203    -0.30100
H806        H  0.80639575  0.01406896  0.44693295     0.14100
H807        H  0.85251616  0.50049512  0.36863371     0.14700
C808        C  0.66141409  0.00061004  0.43037284    -0.14900
C809        C  0.66814356  0.01323462  0.39997738    -0.30100
H810        H  0.68618648  0.99115738  0.44677429     0.14100
H811        H  0.64488265  0.53016735  0.36479323     0.14700
C812        C  0.85687316  0.00395865  0.10966243    -0.14900
C813        C  0.81972850  0.01613994  0.10036736    -0.30100
H814        H  0.86327401  0.99454615  0.13499858     0.14100
H815        H  0.85699831  0.48119190  0.11240242     0.14700
C816        C  0.67440906  0.99850497  0.08523942    -0.14900
C817        C  0.67948245  0.01136559  0.11647488    -0.30100
H818        H  0.69949859  0.99166019  0.06941529     0.14100
H819        H  0.69400331  0.47963657  0.05975061     0.14700
C820        C  0.63721730  0.99484230  0.57620388     0.44000
N821        N  0.57518463  0.99455655  0.57133253     0.02900
C822        C  0.00125346  0.91188613  0.92327331    -0.05000
H823        H  0.58015841  0.53791923  0.89685835     0.08400
C824        C  0.98111806  0.61336714  0.95077052    -0.05400
Co825      Co  0.55750253  0.94669337  0.00063298     0.74200
N826        N  0.56171463  0.00035772  0.94358949    -0.24500
Co827      Co  0.00442647  0.49468893  0.92807350     0.74100
C828        C  0.49034436  0.63107721  0.92280568     0.44100
N829        N  0.97621559  0.56638584  0.54155598     0.02500
N830        N  0.00209707  0.55524767  0.93265965     0.02600
N831        N  0.52147743  0.88668811  0.95784042    -0.45400
H832        H  0.64893177  0.95575649  0.53001653     0.08300
N833        N  0.58278819  0.97739499  0.96495342     0.02900
N834        N  0.94322928  0.50118888  0.92599796     0.02600
C835        C  0.88332043  0.50422698  0.90913297     0.44200
N836        N  0.99730604  0.54319739  0.56257778    -0.24000
C837        C  0.52653314  0.88350844  0.55675670    -0.04900
N838        N  0.58462881  0.49690011  0.57411187    -0.45100
N839        N  0.92537183  0.99115128  0.92393339    -0.45300
C840        C  0.00520548  0.85308744  0.55808303     0.44000
N841        N  0.52291308  0.92428055  0.96374897     0.02900
N842        N  0.94126547  0.48711086  0.55624462    -0.24000
N843        N  0.58988254  0.97299793  0.54614486    -0.24500
N844        N  0.92019759  0.50930244  0.53439939     0.02500
H845        H  0.94377546  0.95602200  0.61270584     0.08400
H846        H  0.86165940  0.54080359  0.95507133     0.08400
N847        N  0.50127196  0.94697576  0.94255837    -0.24600
N848        N  0.98172950  0.57500397  0.95618839    -0.24200
N849        N  0.51519054  0.94228417  0.57656930     0.02900
C850        C  0.62606790  0.99879556  0.93524101     0.44300
C851        C  0.50372929  0.57204152  0.57778464    -0.05400
N852        N  0.92312606  0.52132858  0.94944995    -0.24200
H853        H  0.96449447  0.63666714  0.96463880     0.08400
N854        N  0.62090773  0.97584384  0.96085949    -0.45400
H855        H  0.51719407  0.56032003  0.60059202     0.08400
C856        C  0.87794716  0.48246411  0.56072969     0.44100
C857        C  0.62889387  0.97148989  0.54723835    -0.04900
Co858      Co  0.51454364  0.00236400  0.57795970     0.73800
N859        N  0.97284127  0.60344769  0.55146090    -0.45100
C860        C  0.01679289  0.87278781  0.93479654     0.44400
N861        N  0.99958728  0.88836685  0.57332636    -0.45100
Co862      Co  0.94640039  0.54302556  0.50168140     0.73900
C863        C  0.88496389  0.52459658  0.94111646    -0.05400
C864        C  0.58759094  0.51970055  0.91818238    -0.05000
N865        N  0.52949161  0.92116175  0.55103115    -0.24500
N866        N  0.50661610  0.59448411  0.91552646    -0.45300
H867        H  0.98171366  0.92024968  0.90250456     0.08400
C868        C  0.93281146  0.97182450  0.59077733    -0.05400
Cl869      Cl  0.50369031  0.49705122  0.48550385    -0.48400
C870        C  0.48618223  0.61142499  0.57070136     0.44100
H871        H  0.53684877  0.85914821  0.54064630     0.08300
N872        N  0.88224357  0.50723092  0.53612744    -0.45100
C873        C  0.47855397  0.74607341  0.65971740     0.81700
N874        N  0.47414915  0.71373916  0.64067956    -0.76900
C875        C  0.47584381  0.71533612  0.60696006     0.84200
N876        N  0.48241800  0.74888136  0.59265734    -0.76500
C877        C  0.48752886  0.78092162  0.61124153     0.84300
N878        N  0.48545990  0.77962808  0.64491310    -0.78200
C879        C  0.47328329  0.75615867  0.82681519     0.81700
N880        N  0.47391405  0.72578702  0.84808292    -0.76600
C881        C  0.47427923  0.73251369  0.88159448     0.84200
N882        N  0.47446195  0.76957485  0.89343023    -0.76500
C883        C  0.47444374  0.79997203  0.87246440     0.84300
N884        N  0.47361234  0.79309350  0.83914927    -0.78200
C885        C  0.76758441  0.02305080  0.67582481     0.81700
N886        N  0.73059151  0.02337878  0.66342865    -0.76600
C887        C  0.72391375  0.01995286  0.63030780     0.84200
N888        N  0.75464239  0.01662844  0.60942247    -0.76500
C889        C  0.79187491  0.01621003  0.62156269     0.84300
N890        N  0.79832782  0.01915857  0.65496926    -0.78200
C891        C  0.75836864  0.02191482  0.84031662     0.81700
N892        N  0.78896870  0.01769339  0.86233669    -0.76600
C893        C  0.78277821  0.01446644  0.89528390     0.84200
N894        N  0.74541805  0.01525894  0.90598625    -0.76500
C895        C  0.71445699  0.01919986  0.88390865     0.84300
N896        N  0.72122968  0.02269286  0.85110691    -0.78200
C897        C  0.76538728  0.02456265  0.80546935    -0.17000
C898        C  0.77042953  0.02577581  0.77600507     0.07100
C899        C  0.77397874  0.02600555  0.74114037     0.08900
C900        C  0.77360440  0.02519325  0.71119210    -0.17800
C901        C  0.47323583  0.74955710  0.79113796    -0.17000
C902        C  0.47375971  0.74653302  0.76106164     0.07100
C903        C  0.47497843  0.74493347  0.72568445     0.08900
C904        C  0.47643797  0.74480283  0.69559337    -0.17800
C905        C  0.48858227  0.66321367  0.89860680    -0.14900
C906        C  0.47460534  0.70043628  0.90576878    -0.30100
H907        H  0.50018987  0.65589609  0.87413209     0.14100
H908        H  0.98902796  0.69254021  0.93547338     0.14700
C909        C  0.48964067  0.84581880  0.91713993    -0.14900
C910        C  0.47744522  0.83999261  0.88570591    -0.30100
H911        H  0.49703002  0.82084523  0.93312785     0.14100
H912        H  0.98827445  0.85164330  0.87493132     0.14700
C913        C  0.48437193  0.64474151  0.59430781    -0.14900
C914        C  0.47210880  0.68125627  0.58502552    -0.30100
H915        H  0.00678951  0.63336785  0.62748024     0.14100
H916        H  0.46313821  0.68673430  0.55931379     0.14700
C917        C  0.49876813  0.85041208  0.60844355    -0.14900
C918        C  0.49710617  0.81551979  0.59384770    -0.30100
H919        H  0.49180413  0.85498953  0.63447116     0.14100
H920        H  0.98631572  0.83988457  0.62052032     0.14700
C921        C  0.81632834  0.01122484  0.91945801    -0.14900
C922        C  0.85373574  0.00255380  0.90985500    -0.30100
H923        H  0.81013343  0.01628837  0.94558040     0.14100
H924        H  0.85337587  0.49072347  0.86195549     0.14700
C925        C  0.66571462  0.00460125  0.92443373    -0.14900
C926        C  0.67354585  0.01840792  0.89477121    -0.30100
H927        H  0.68992440  0.99428014  0.94113928     0.14100
H928        H  0.64358048  0.52545138  0.87113866     0.14700
C929        C  0.86124167  0.99735182  0.60731183    -0.14900
C930        C  0.82468906  0.01214356  0.59816303    -0.30100
H931        H  0.86729633  0.98750774  0.63257109     0.14100
H932        H  0.85850095  0.45760462  0.62005254     0.14700
C933        C  0.67660321  0.00181423  0.58792584    -0.14900
C934        C  0.68358821  0.01752237  0.61779217    -0.30100
H935        H  0.70088008  0.99155734  0.57199453     0.14100
H936        H  0.69849495  0.46221407  0.55719442     0.14700
loop_ 
_geom_bond_atom_site_label_1 
_geom_bond_atom_site_label_2 
_geom_bond_distance 
_geom_bond_site_symmetry_2 
_ccdc_geom_bond_type 
C1           C38   1.466       .  S
C1          C114   1.480       .  S
C1          N253   1.348       .  A
N2           N24   1.321       .  A
N2          N253   1.325       .  A
N2          Co39   2.082       .  S
C3           C41   1.459       .  S
C3          N496   1.342       .  A
C3           H48   1.082       .  S
H4           C45   1.081       .  S
C5          C477   1.454       .  S
C5           N29   1.339       .  A
C5           H34   1.082       .  S
Co6          N14   2.113       .  S
Co6          N22   2.094       .  S
Co6         N141   2.091       .  S
Co6         N163   2.108       .  S
Co6        Cl401   2.460       .  S
N7          C279   1.334       .  A
N7           N14   1.321       .  A
N7         Co710   2.048   1_455  S
Co8          N11   2.103       .  S
Co8          N15   2.115       .  S
Co8         N709   2.115   1_545  S
Co8         N730   2.100   1_545  S
Co8        Cl635   2.477       .  S
C9          C473   1.453   1_455  S
C9           C86   1.476       .  S
C9           N47   1.353       .  A
N10          N17   1.320       .  A
N10          N40   1.322       .  A
N10         Co43   2.073       .  S
N11          N29   1.322       .  A
N11         N515   1.330       .  A
N12         C509   1.352       .  A
N12          N22   1.327       .  A
H13          C38   1.081       .  S
N14          N35   1.329       .  A
N15          N33   1.321       .  A
N15         N254   1.330       .  A
C16          C44   1.452       .  S
C16         C337   1.485       .  S
C16         N254   1.358       .  A
N17         C500   1.345       .  A
N17        Co741   2.098   1_545  S
C18         C489   1.454       .  S
C18          N46   1.339       .  A
C18          H52   1.083       .  S
N19         C235   1.349       .  A
N19         N236   1.324       .  A
N20         C250   1.343       .  A
N20         N249   1.323       .  A
C21         C486   1.451       .  S
C21         C566   1.478       .  S
C21          N42   1.356       .  A
N22          N28   1.323       .  A
N23         C283   1.345   1_545  A
N23          N25   1.319       .  A
N23        Co741   2.087   1_545  S
N24          C38   1.345       .  A
N24        Co123   2.101   1_554  S
N25          N53   1.321       .  A
N25         Co43   2.075       .  S
H26          C49   1.081       .  S
H27          C44   1.082       .  S
N28         C471   1.340   1_455  A
N28        Co710   2.093   1_455  S
N29        Co160   2.085       .  S
N30          N46   1.321       .  A
N30         N510   1.329   1_455  A
N30         Co39   2.100       .  S
C31         C279   1.443       .  S
C31         C106   1.470       .  S
C31          N35   1.356       .  A
C32          C51   1.458       .  S
C32         N485   1.341       .  A
C32          H36   1.082       .  S
N33          C44   1.340       .  A
N33        Co160   2.079       .  S
C37         C283   1.464   1_545  S
C37         C344   1.467   1_545  S
C37          N53   1.342       .  A
Co39        N719   2.090   1_455  S
Co39        N725   2.079   1_455  S
Co39       Cl284   2.458   1_554  S
N40         C519   1.346       .  A
C41         C558   1.477       .  S
C41         N480   1.350       .  A
N42         N498   1.330       .  A
Co43        N146   2.071   1_554  S
Co43        N150   2.069   1_554  S
Co43       Cl518   2.424       .  S
C45         C265   1.473   1_545  S
C45         N241   1.350   1_545  A
N46        Co123   2.082   1_554  S
N47         N479   1.328       .  A
C49         C271   1.459       .  S
C49         N257   1.341       .  A
Cl50       Co357   2.449       .  S
Cl50       Co593   2.465   1_554  S
Cl50       Co273   2.458       .  S
Cl50       Co511   2.451   1_465  S
C51          C94   1.478       .  S
C51         N508   1.351   1_455  A
C54          N55   1.358       .  A
C54          N59   1.360       .  A
C54          C85   1.441       .  S
N55          C56   1.360       .  A
C56          C95   1.481       .  S
C56          N57   1.359       .  A
N57          C58   1.362       .  A
C58          C99   1.485       .  S
C58          N59   1.361       .  A
C60          N61   1.358   1_655  A
C60          N65   1.357       .  A
C60          C82   1.441       .  S
N61          C62   1.360       .  A
C62          C87   1.482       .  S
C62          N63   1.362       .  A
N63          C64   1.359       .  A
C64          C91   1.481       .  S
C64          N65   1.360   1_455  A
C66          N67   1.361       .  A
C66          N71   1.359       .  A
C66          C81   1.447       .  S
N67          C68   1.364       .  A
C68         C115   1.482       .  S
C68          N69   1.358       .  A
N69          C70   1.359       .  A
C70         C111   1.481       .  S
C70          N71   1.360       .  A
C72          N73   1.361       .  A
C72          N77   1.363       .  A
C72          C78   1.446       .  S
N73          C74   1.361       .  A
C74         C102   1.466       .  S
C74          N75   1.350       .  A
N75          C76   1.349       .  A
C76         C107   1.470       .  S
C76          N77   1.364       .  A
C78          C79   1.212       .  T
C79          C80   1.422       .  S
C80          C81   1.212       .  T
C82          C83   1.209       .  T
C83          C84   1.417       .  S
C84          C85   1.209       .  T
C86          C87   1.344       .  D
C86          H88   1.086   1_455  S
C87         H557   1.087       .  S
H89         C555   1.087       .  S
C90         C509   1.475   1_655  S
C90          C91   1.344   1_655  D
C90          H92   1.086       .  S
C91         H561   1.087       .  S
H93         C559   1.087       .  S
C94          C95   1.344   1_455  D
C94         H564   1.087       .  S
C95          H97   1.087       .  S
H96         C562   1.086       .  S
C98         C489   1.478       .  S
C98          C99   1.345   1_455  D
C98         H100   1.086       .  S
C99         H569   1.087       .  S
H101        C567   1.087       .  S
C102        C103   1.334       .  D
C102        H104   1.087       .  S
C103        C250   1.467       .  S
C103        H339   1.086       .  S
H105        C337   1.087       .  S
C106        C107   1.333       .  D
C106        H108   1.087       .  S
C107        H343   1.087       .  S
H109        C341   1.085       .  S
C110        C271   1.479       .  S
C110        C111   1.347       .  D
C110        H112   1.086       .  S
C111        H347   1.086       .  S
H113        C345   1.086       .  S
C114        C115   1.343       .  D
C114        H116   1.086       .  S
C115        H351   1.086       .  S
H117        C349   1.086       .  S
C118        C155   1.464       .  S
C118        C231   1.475       .  S
C118        N370   1.348       .  A
N119        N370   1.324       .  A
N119        N141   1.323       .  A
N119       Co156   2.092       .  S
C120        C158   1.458       .  S
C120        N613   1.341       .  A
C120        H165   1.082       .  S
H121        C162   1.082       .  S
C122        C594   1.449       .  S
C122        N146   1.336       .  A
C122        H151   1.081       .  S
Co123       N131   2.087       .  S
Co123       N139   2.098       .  S
Co123      Cl284   2.447       .  S
N124        C396   1.338       .  A
N124        N131   1.320       .  A
N124       Co827   2.077       .  S
Co125       N826   2.120       .  S
Co125       N128   2.108       .  S
Co125       N847   2.107   1_545  S
Co125       N132   2.126       .  S
Co125      Cl518   2.485   1_556  S
C126        C590   1.462   1_455  S
C126        C203   1.484       .  S
C126        N164   1.350       .  A
N127        N134   1.320       .  A
N127        N157   1.322       .  A
N127       Co160   2.084       .  S
N128        N146   1.321       .  A
N128        N632   1.330       .  A
N129        C626   1.352       .  A
N129        N139   1.327       .  A
H130        C155   1.082       .  S
N131        N152   1.325       .  A
N132        N150   1.321       .  A
N132        N371   1.333       .  A
C133        C161   1.445       .  S
C133        C454   1.483       .  S
C133        N371   1.361       .  A
N134        C617   1.339       .  A
N134       Co858   2.066       .  S
C135        C606   1.470       .  S
C135        N163   1.347       .  A
C135        H169   1.081       .  S
N136        C352   1.354       .  A
N136        N353   1.328       .  A
N137        C367   1.345       .  A
N137        N366   1.323       .  A
C138        C603   1.457       .  S
C138        C683   1.465       .  S
C138        N159   1.345       .  A
N139        N145   1.321       .  A
N140        C400   1.341   1_545  A
N140        N142   1.321       .  A
N140       Co858   2.087       .  S
N141        C155   1.342       .  A
N142        N170   1.327       .  A
N142       Co160   2.092       .  S
H143        C166   1.082       .  S
H144        C161   1.081       .  S
N145        C588   1.342   1_455  A
N145       Co827   2.085       .  S
N147        N627   1.320   1_455  A
N147        N163   1.320       .  A
N147       Co156   2.052       .  S
C148        C396   1.458       .  S
C148        C223   1.470       .  S
C148        N152   1.349       .  A
C149        C168   1.453       .  S
C149        N602   1.341       .  A
C149        H153   1.082       .  S
N150        C161   1.336       .  A
C154        C400   1.457   1_545  S
C154        C461   1.475       .  S
C154        N170   1.350       .  A
Co156       N836   2.054   1_455  S
Co156       N842   2.090   1_455  S
Co156      Cl401   2.440       .  S
N157        C636   1.349       .  A
C158        C675   1.475       .  S
C158        N597   1.350       .  A
N159        N615   1.322       .  A
Co160      Cl635   2.432       .  S
C162        C382   1.474   1_545  S
C162        N358   1.349   1_545  A
N164        N596   1.328       .  A
C166        C388   1.459       .  S
C166        N374   1.339       .  A
Cl167      Co240   2.448       .  S
Cl167      Co476   2.461       .  S
Cl167      Co390   2.460       .  S
Cl167      Co628   2.443   1_465  S
C168        C211   1.468       .  S
C168        N625   1.350   1_455  A
C171        N172   1.360       .  A
C171        N176   1.366       .  A
C171        C202   1.450       .  S
N172        C173   1.360       .  A
C173        C212   1.465       .  S
C173        N174   1.349       .  A
N174        C175   1.349       .  A
C175        C216   1.473       .  S
C175        N176   1.367       .  A
C177        N178   1.363       .  A
C177        N182   1.360       .  A
C177        C199   1.451       .  S
N178        C179   1.364       .  A
C179        C204   1.490       .  S
C179        N180   1.360       .  A
N180        C181   1.358       .  A
C181        C208   1.481       .  S
C181        N182   1.362       .  A
C183        N184   1.360       .  A
C183        N188   1.356       .  A
C183        C198   1.438       .  S
N184        C185   1.363       .  A
C185        C232   1.477       .  S
C185        N186   1.357       .  A
N186        C187   1.358       .  A
C187        C228   1.472       .  S
C187        N188   1.356       .  A
C189        N190   1.360       .  A
C189        N194   1.355       .  A
C189        C195   1.438       .  S
N190        C191   1.363       .  A
C191        C219   1.478       .  S
C191        N192   1.357       .  A
N192        C193   1.358       .  A
C193        C224   1.471       .  S
C193        N194   1.356       .  A
C195        C196   1.207       .  T
C196        C197   1.415       .  S
C197        C198   1.207       .  T
C199        C200   1.215       .  T
C200        C201   1.426       .  S
C201        C202   1.214       .  T
C203        C204   1.351       .  D
C203        H205   1.086   1_455  S
C204        H674   1.087       .  S
H206        C672   1.087       .  S
C207        C626   1.479       .  S
C207        C208   1.344       .  D
C207        H209   1.087       .  S
C208        H678   1.087       .  S
H210        C676   1.087       .  S
C211        C212   1.336       .  D
C211        H681   1.087       .  S
C212        H214   1.088       .  S
H213        C679   1.087       .  S
C215        C606   1.474       .  S
C215        C216   1.333       .  D
C215        H217   1.087       .  S
C216        H686   1.086       .  S
H218        C684   1.087       .  S
C219        C220   1.340       .  D
C219        H221   1.086       .  S
C220        C367   1.475       .  S
C220        H456   1.086       .  S
H222        C454   1.087       .  S
C223        C224   1.342       .  D
C223        H225   1.086       .  S
C224        H460   1.086       .  S
H226        C458   1.086       .  S
C227        C388   1.471       .  S
C227        C228   1.342       .  D
C227        H229   1.086       .  S
C228        H464   1.086       .  S
H230        C462   1.087       .  S
C231        C232   1.341       .  D
C231        H233   1.086       .  S
C232        H468   1.086       .  S
H234        C466   1.087       .  S
C235        C272   1.460       .  S
C235        C348   1.473       .  S
N236        N258   1.318       .  A
N236       Co273   2.083       .  S
C237        C275   1.466       .  S
C237        N730   1.346       .  A
C237        H282   1.081       .  S
H238        C279   1.082       .  S
C239        C711   1.463       .  S
C239        N263   1.343       .  A
C239        H268   1.081       .  S
Co240       N375   2.079       .  S
Co240       N248   2.077       .  S
Co240       N397   2.079       .  S
Co240       N256   2.085       .  S
N241        N248   1.321       .  A
N241       Co476   2.114       .  S
Co242       N475   2.061       .  S
Co242       N245   2.093       .  S
Co242       N496   2.094       .  S
Co242       N249   2.060       .  S
Co242      Cl869   2.452       .  S
C243        C707   1.451       .  S
C243        C320   1.474       .  S
C243        N281   1.355   1_655  A
N244        N251   1.324       .  A
N244        N274   1.330       .  A
N244       Co277   2.113   1_554  S
N245        N263   1.322       .  A
N245        N749   1.325       .  A
N246        C743   1.351       .  A
N246        N256   1.326       .  A
H247        C272   1.082       .  S
N248        N269   1.323       .  A
N249        N267   1.320       .  A
C250        C278   1.463       .  S
N251        C734   1.339       .  A
N251       Co507   2.087       .  S
C252        C723   1.447       .  S
C252        N280   1.337       .  A
C252        H286   1.080       .  S
C255        C720   1.448       .  S
C255        C800   1.473       .  S
C255        N276   1.354       .  A
N256        N262   1.320       .  A
N257        N259   1.322       .  A
N257       Co507   2.077       .  S
N258        C272   1.340       .  A
N258       Co357   2.074       .  S
N259        N287   1.327       .  A
N259       Co277   2.108   1_554  S
H260        C283   1.081       .  S
H261        C278   1.081       .  S
N262        C705   1.344   1_455  A
N262       Co476   2.096       .  S
N263       Co394   2.090       .  S
N264        N744   1.330       .  A
N264        N280   1.320       .  A
N264       Co273   2.106       .  S
C265        C340   1.483       .  S
C265        N269   1.343       .  A
C266        C285   1.456   1_455  S
C266        N719   1.340   1_455  A
C266        H270   1.082       .  S
N267        C278   1.339       .  A
N267       Co394   2.093       .  S
C271        N287   1.352       .  A
Co273       N485   2.091   1_565  S
Co273       N491   2.072   1_455  S
N274        C753   1.356       .  A
C275        C792   1.475       .  S
C275        N714   1.346       .  A
N276        N732   1.329       .  A
Co277       N380   2.117       .  S
Co277       N384   2.098       .  S
Co277      Cl752   2.456       .  S
N280       Co357   2.074       .  S
N281        N713   1.328   1_455  A
Cl284      Co827   2.457       .  S
Cl284      Co745   2.451   1_455  S
C285        C328   1.482       .  S
C285        N742   1.354       .  A
C288        N289   1.360       .  A
C288        N293   1.353       .  A
C288        C319   1.438       .  S
N289        C290   1.365       .  A
C290        C329   1.487       .  S
C290        N291   1.363       .  A
N291        C292   1.363       .  A
C292        C333   1.478       .  S
C292        N293   1.353       .  A
C294        N295   1.355       .  A
C294        N299   1.362       .  A
C294        C316   1.439       .  S
N295        C296   1.354   1_655  A
C296        C321   1.479       .  S
C296        N297   1.361       .  A
N297        C298   1.360       .  A
C298        C325   1.483       .  S
C298        N299   1.364   1_455  A
C300        N301   1.355       .  A
C300        N305   1.353       .  A
C300        C315   1.427       .  S
N301        C302   1.359       .  A
C302        C349   1.476       .  S
C302        N303   1.359       .  A
N303        C304   1.361       .  A
C304        C345   1.471       .  S
C304        N305   1.353       .  A
C306        N307   1.351       .  A
C306        N311   1.350       .  A
C306        C312   1.427       .  S
N307        C308   1.356       .  A
C308        C336   1.484       .  S
C308        N309   1.371       .  A
N309        C310   1.371       .  A
C310        C341   1.480       .  S
C310        N311   1.354       .  A
C312        C313   1.201   1_545  T
C313        C314   1.404       .  S
C314        C315   1.201       .  T
C316        C317   1.208       .  T
C317        C318   1.415       .  S
C318        C319   1.207       .  T
C320        C321   1.340   1_655  D
C320        H322   1.087       .  S
C321        H791   1.087       .  S
H323        C789   1.086       .  S
C324        C743   1.482       .  S
C324        C325   1.346       .  D
C324        H326   1.086   1_455  S
C325        H795   1.087       .  S
H327        C793   1.086       .  S
C328        C329   1.346       .  D
C328        H798   1.086       .  S
C329        H331   1.087       .  S
H330        C796   1.087       .  S
C332        C723   1.475       .  S
C332        C333   1.338   1_455  D
C332        H334   1.086       .  S
C333        H803   1.086       .  S
H335        C801   1.087       .  S
C336        C337   1.340       .  D
C336        H338   1.087   1_545  S
C340        C341   1.338   1_565  D
C340        H342   1.086       .  S
C344        C345   1.337       .  D
C344        H346   1.086   1_565  S
C348        C349   1.344       .  D
C348        H350   1.086       .  S
C352        C389   1.450       .  S
C352        C465   1.477       .  S
N353        N375   1.319       .  A
N353       Co390   2.095       .  S
C354        C392   1.468       .  S
C354        N847   1.350       .  A
C354        H399   1.082       .  S
H355        C396   1.082       .  S
C356        C828   1.471       .  S
C356        N380   1.350       .  A
C356        H385   1.082       .  S
Co357       N365   2.077   1_554  S
Co357       N373   2.072   1_554  S
N358        N365   1.321       .  A
N358       Co593   2.122       .  S
Co359       N592   2.081       .  S
Co359       N362   2.084       .  S
Co359       N613   2.086       .  S
Co359       N366   2.077       .  S
Co359      Cl752   2.451       .  S
C360        C824   1.464   1_455  S
C360        C437   1.476       .  S
C360        N398   1.348       .  A
N361        N368   1.321       .  A
N361        N391   1.329       .  A
N361       Co394   2.107       .  S
N362        N380   1.323       .  A
N362        N866   1.324       .  A
N363        C860   1.342       .  A
N363        N373   1.321       .  A
H364        C389   1.080       .  S
N365        N386   1.325       .  A
N366        N384   1.321       .  A
C367        C395   1.466       .  S
N368        C851   1.336       .  A
N368       Co624   2.063       .  S
C369        C840   1.455       .  S
C369        N397   1.339       .  A
C369        H403   1.082       .  S
C372        C837   1.465       .  S
C372        C917   1.475       .  S
C372        N393   1.345       .  A
N373        N379   1.319       .  A
N374        N376   1.320       .  A
N374       Co624   2.078       .  S
N375        C389   1.340       .  A
N376        N404   1.325       .  A
N376       Co394   2.086       .  S
H377        C400   1.082       .  S
H378        C395   1.082       .  S
N379        C822   1.348       .  A
N379       Co593   2.099       .  S
N381        N861   1.323   1_455  A
N381        N397   1.320       .  A
N381       Co390   2.076       .  S
C382        C457   1.489   1_565  S
C382        N386   1.347       .  A
C383        C402   1.448   1_455  S
C383        N836   1.336   1_455  A
C383        H387   1.082       .  S
N384        C395   1.344       .  A
C388        N404   1.349       .  A
Co390       N602   2.069   1_565  S
Co390       N608   2.084   1_455  S
N391        C870   1.356       .  A
C392        C909   1.477       .  S
C392        N831   1.344       .  A
N393        N849   1.324       .  A
Co394      Cl869   2.449       .  S
N398        N830   1.324       .  A
Cl401      Co710   2.439   1_455  S
Cl401      Co862   2.451   1_455  S
C402        C445   1.465       .  S
C402        N859   1.352       .  A
C405        N406   1.357       .  A
C405        N410   1.357       .  A
C405        C436   1.434       .  S
N406        C407   1.360       .  A
C407        C446   1.467       .  S
C407        N408   1.352       .  A
N408        C409   1.356       .  A
C409        C450   1.470       .  S
C409        N410   1.357       .  A
C411        N412   1.356       .  A
C411        N416   1.356       .  A
C411        C433   1.434       .  S
N412        C413   1.360       .  A
C413        C438   1.480       .  S
C413        N414   1.360       .  A
N414        C415   1.363       .  A
C415        C442   1.479       .  S
C415        N416   1.356       .  A
C417        N418   1.351       .  A
C417        N422   1.353       .  A
C417        C432   1.428       .  S
N418        C419   1.354       .  A
C419        C466   1.477   1_545  S
C419        N420   1.366       .  A
N420        C421   1.365       .  A
C421        C462   1.482       .  S
C421        N422   1.360       .  A
C423        N424   1.349       .  A
C423        N428   1.352       .  A
C423        C429   1.428       .  S
N424        C425   1.353       .  A
C425        C453   1.483       .  S
C425        N426   1.372       .  A
N426        C427   1.372       .  A
C427        C458   1.488       .  S
C427        N428   1.357       .  A
C429        C430   1.201       .  T
C430        C431   1.405       .  S
C431        C432   1.201       .  T
C433        C434   1.205       .  T
C434        C435   1.411       .  S
C435        C436   1.205       .  T
C437        C438   1.343   1_455  D
C437        H439   1.087       .  S
C438        H908   1.087       .  S
H440        C906   1.087       .  S
C441        C860   1.473       .  S
C441        C442   1.339   1_455  D
C441        H443   1.087       .  S
C442        H912   1.086       .  S
H444        C910   1.087       .  S
C445        C446   1.336       .  D
C445        H915   1.087   1_655  S
C446        H448   1.088       .  S
H447        C913   1.087       .  S
C449        C840   1.464   1_655  S
C449        C450   1.343       .  D
C449        H451   1.087   1_655  S
C450        H920   1.087       .  S
H452        C918   1.087       .  S
C453        C454   1.336       .  D
C453        H455   1.087   1_545  S
C457        C458   1.342       .  D
C457        H459   1.086   1_545  S
C461        C462   1.347       .  D
C461        H463   1.087       .  S
C465        C466   1.338       .  D
C465        H467   1.086       .  S
C469        C506   1.461       .  S
C469        C582   1.477       .  S
C469        N721   1.350       .  A
N470        N721   1.326       .  A
N470        N492   1.320       .  A
N470       Co507   2.087       .  S
C471        C509   1.456   1_655  S
C471        H516   1.082       .  S
H472        C513   1.082       .  S
C473        N497   1.339       .  A
C473        H502   1.082       .  S
Co474       N609   2.082       .  S
Co474       N482   2.084       .  S
Co474       N631   2.081       .  S
Co474       N490   2.086       .  S
Co474      Cl869   2.449       .  S
N475        C747   1.336       .  A
N475        N482   1.319       .  A
Co476       N479   2.093   1_565  S
Co476       N483   2.101   1_465  S
C477        C554   1.479       .  S
C477        N515   1.354       .  A
N478        N485   1.322   1_655  A
N478        N508   1.326       .  A
N478       Co511   2.095       .  S
N479        N497   1.321   1_455  A
N480        N490   1.326       .  A
H481        C506   1.082       .  S
N482        N503   1.323       .  A
N483        N501   1.323       .  A
N483        N722   1.325   1_545  A
C484        C512   1.466       .  S
C484        C805   1.484       .  S
C484        N722   1.350   1_545  A
C486        N514   1.337       .  A
C486        H520   1.082       .  S
N487        C703   1.352   1_545  A
N487        N704   1.327   1_545  A
N488        C718   1.342       .  A
N488        N717   1.321       .  A
C489        N510   1.354   1_455  A
N490        N496   1.321       .  A
N491        C751   1.338       .  A
N491        N493   1.322   1_565  A
N492        C506   1.340       .  A
N492       Co591   2.084   1_554  S
N493        N521   1.332       .  A
N493       Co511   2.119       .  S
H494        C517   1.081       .  S
H495        C512   1.082       .  S
N497       Co628   2.083       .  S
N498        N514   1.320       .  A
N498       Co507   2.105       .  S
C499        C747   1.454       .  S
C499        C574   1.461       .  S
C499        N503   1.348       .  A
C500        C519   1.464       .  S
C500        H504   1.082       .  S
N501        C512   1.347       .  A
N501       Co628   2.102       .  S
C505        C751   1.450   1_545  S
C505        C812   1.483       .  S
C505        N521   1.357       .  A
Co507      Cl752   2.460   1_554  S
Co511       N614   2.109   1_554  S
Co511       N618   2.092   1_554  S
C513        C733   1.472   1_545  S
C513        N709   1.352   1_545  A
N514       Co591   2.073   1_554  S
C517        C739   1.460       .  S
C517        N725   1.339       .  A
Cl518      Co825   2.424   1_545  S
Cl518      Co741   2.481   1_545  S
C519        C562   1.475       .  S
C522        N523   1.354       .  A
C522        N527   1.358       .  A
C522        C553   1.436       .  S
N523        C524   1.356       .  A
C524        C563   1.478       .  S
C524        N525   1.361       .  A
N525        C526   1.364       .  A
C526        C567   1.485       .  S
C526        N527   1.360       .  A
C528        N529   1.359       .  A
C528        N533   1.355       .  A
C528        C550   1.437       .  S
N529        C530   1.361       .  A
C530        C555   1.485       .  S
C530        N531   1.364       .  A
N531        C532   1.360       .  A
C532        C559   1.481       .  S
C532        N533   1.358       .  A
C534        N535   1.360       .  A
C534        N539   1.354       .  A
C534        C549   1.435       .  S
N535        C536   1.362       .  A
C536        C583   1.477       .  S
C536        N537   1.358       .  A
N537        C538   1.358       .  A
C538        C579   1.470       .  S
C538        N539   1.354       .  A
C540        N541   1.361       .  A
C540        N545   1.356       .  A
C540        C546   1.435       .  S
N541        C542   1.363       .  A
C542        C570   1.469       .  S
C542        N543   1.351       .  A
N543        C544   1.354       .  A
C544        C575   1.465       .  S
C544        N545   1.354       .  A
C546        C547   1.205       .  T
C547        C548   1.411       .  S
C548        C549   1.205       .  T
C550        C551   1.206       .  T
C551        C552   1.413       .  S
C552        C553   1.206       .  T
C554        C555   1.344       .  D
C554        H556   1.086       .  S
C558        C559   1.347       .  D
C558        H560   1.087       .  S
C562        C563   1.348       .  D
C563        H565   1.087       .  S
C566        C567   1.343       .  D
C566        H568   1.086       .  S
C570        C571   1.335       .  D
C570        H572   1.087       .  S
C571        C718   1.469       .  S
C571        H807   1.087       .  S
H573        C805   1.087   1_565  S
C574        C575   1.341       .  D
C574        H576   1.087       .  S
C575        H811   1.086       .  S
H577        C809   1.087       .  S
C578        C739   1.469       .  S
C578        C579   1.340       .  D
C578        H580   1.086       .  S
C579        H815   1.086       .  S
H581        C813   1.087       .  S
C582        C583   1.343       .  D
C582        H584   1.086       .  S
C583        H819   1.086       .  S
H585        C817   1.087       .  S
C586        C623   1.461       .  S
C586        C699   1.476       .  S
C586        N838   1.349       .  A
N587        N838   1.325       .  A
N587        N609   1.320       .  A
N587       Co624   2.087       .  S
C588        C626   1.458   1_655  S
C588        H633   1.082       .  S
H589        C630   1.082       .  S
C590        N614   1.344       .  A
C590        H619   1.082       .  S
Co591       N599   2.080       .  S
Co591       N607   2.084       .  S
Co591      Cl752   2.449       .  S
N592        C864   1.340       .  A
N592        N599   1.319       .  A
Co593       N596   2.088   1_565  S
Co593       N600   2.111   1_465  S
C594        C671   1.477       .  S
C594        N632   1.356       .  A
N595        N602   1.321   1_655  A
N595        N625   1.322       .  A
N595       Co628   2.091       .  S
N596        N614   1.323   1_455  A
N597        N607   1.326       .  A
H598        C623   1.082       .  S
N599        N620   1.324       .  A
N600        N618   1.324       .  A
N600        N839   1.327   1_545  A
C601        C629   1.461       .  S
C601        C922   1.483       .  S
C601        N839   1.353   1_545  A
C603        N631   1.341       .  A
C603        H637   1.083       .  S
N604        C820   1.354   1_545  A
N604        N821   1.328   1_545  A
N605        C835   1.351       .  A
N605        N834   1.327       .  A
C606        N627   1.339   1_455  A
N607        N613   1.319       .  A
N608        C868   1.340       .  A
N608        N610   1.322   1_565  A
N609        C623   1.340       .  A
N610        N638   1.328       .  A
N610       Co628   2.098       .  S
H611        C634   1.081       .  S
H612        C629   1.081       .  S
N615        N631   1.319       .  A
N615       Co624   2.068       .  S
C616        C864   1.461       .  S
C616        C691   1.471       .  S
C616        N620   1.348       .  A
C617        C636   1.452       .  S
C617        H621   1.082       .  S
N618        C629   1.344       .  A
C622        C868   1.454       .  S
C622        C929   1.479       .  S
C622        N638   1.353   1_565  A
Co624      Cl869   2.446       .  S
C630        C850   1.474   1_545  S
C630        N826   1.352       .  A
C634        C856   1.462       .  S
C634        N842   1.343       .  A
Cl635      Co708   2.433   1_545  S
Cl635      Co858   2.471       .  S
C636        C679   1.465       .  S
C639        N640   1.357       .  A
C639        N644   1.360       .  A
C639        C670   1.435       .  S
N640        C641   1.357       .  A
C641        C680   1.464       .  S
C641        N642   1.350       .  A
N642        C643   1.355       .  A
C643        C684   1.472       .  S
C643        N644   1.360       .  A
C645        N646   1.357       .  A
C645        N650   1.354       .  A
C645        C667   1.435       .  S
N646        C647   1.359       .  A
C647        C672   1.483       .  S
C647        N648   1.365       .  A
N648        C649   1.361       .  A
C649        C676   1.482       .  S
C649        N650   1.358       .  A
C651        N652   1.359       .  A
C651        N656   1.355       .  A
C651        C666   1.432       .  S
N652        C653   1.361       .  A
C653        C700   1.476       .  S
C653        N654   1.357       .  A
N654        C655   1.359       .  A
C655        C696   1.473       .  S
C655        N656   1.354       .  A
C657        N658   1.359       .  A
C657        N662   1.354       .  A
C657        C663   1.432       .  S
N658        C659   1.361       .  A
C659        C687   1.477       .  S
C659        N660   1.359       .  A
N660        C661   1.359       .  A
C661        C692   1.471       .  S
C661        N662   1.354       .  A
C663        C664   1.204       .  T
C664        C665   1.409       .  S
C665        C666   1.204       .  T
C667        C668   1.205       .  T
C668        C669   1.411       .  S
C669        C670   1.205       .  T
C671        C672   1.341       .  D
C671        H673   1.086       .  S
C675        C676   1.347       .  D
C675        H677   1.087       .  S
C679        C680   1.337       .  D
C680        H682   1.088       .  S
C683        C684   1.346       .  D
C683        H685   1.087       .  S
C687        C688   1.345       .  D
C687        H689   1.086       .  S
C688        C835   1.478       .  S
C688        H924   1.086       .  S
H690        C922   1.086   1_565  S
C691        C692   1.341       .  D
C691        H693   1.086       .  S
C692        H928   1.086       .  S
H694        C926   1.087       .  S
C695        C856   1.467       .  S
C695        C696   1.339       .  D
C695        H697   1.086       .  S
C696        H932   1.086       .  S
H698        C930   1.087       .  S
C699        C700   1.343       .  D
C699        H701   1.086       .  S
C700        H936   1.086       .  S
H702        C934   1.087       .  S
C703        C740   1.452       .  S
C703        C816   1.472       .  S
N704        N726   1.321       .  A
N704       Co741   2.089       .  S
C705        C743   1.460   1_655  S
C705        H750   1.082       .  S
H706        C747   1.082       .  S
C707        N731   1.337       .  A
C707        H736   1.082       .  S
Co708       N843   2.077       .  S
Co708       N716   2.086       .  S
Co708       N865   2.091       .  S
Co708       N724   2.078       .  S
N709        N716   1.322       .  A
Co710       N713   2.110       .  S
Co710       N717   2.057       .  S
C711        C788   1.477       .  S
C711        N749   1.349       .  A
N712        N719   1.322       .  A
N712        N742   1.330       .  A
N712       Co745   2.099   1_554  S
N713        N731   1.321       .  A
N714        N724   1.323       .  A
H715        C740   1.081       .  S
N716        N737   1.323       .  A
N717        N735   1.318       .  A
C718        C746   1.465       .  S
C720        N748   1.336       .  A
C720        H754   1.081       .  S
C723        N744   1.356       .  A
N724        N730   1.321       .  A
N725        N727   1.321       .  A
N726        C740   1.339       .  A
N726       Co825   2.084       .  S
N727        N755   1.324       .  A
N727       Co745   2.084   1_554  S
H728        C751   1.083       .  S
H729        C746   1.082       .  S
N731       Co862   2.067       .  S
N732        N748   1.320       .  A
N732       Co741   2.100       .  S
C733        C808   1.485   1_565  S
C733        N737   1.345       .  A
C734        C753   1.453       .  S
C734        H738   1.082       .  S
N735        C746   1.343       .  A
N735       Co862   2.089       .  S
C739        N755   1.347       .  A
Co745       N848   2.091       .  S
Co745       N852   2.085       .  S
N748       Co825   2.072       .  S
C753        C796   1.481       .  S
C756        N757   1.361       .  A
C756        N761   1.356       .  A
C756        C787   1.440       .  S
N757        C758   1.364       .  A
C758        C797   1.485       .  S
C758        N759   1.359       .  A
N759        C760   1.361       .  A
C760        C801   1.479       .  S
C760        N761   1.355       .  A
C762        N763   1.358       .  A
C762        N767   1.358       .  A
C762        C784   1.440       .  S
N763        C764   1.360       .  A
C764        C789   1.480       .  S
C764        N765   1.359       .  A
N765        C766   1.362       .  A
C766        C793   1.482       .  S
C766        N767   1.359       .  A
C768        N769   1.357       .  A
C768        N773   1.364       .  A
C768        C783   1.444       .  S
N769        C770   1.356       .  A
C770        C817   1.478       .  S
C770        N771   1.360       .  A
N771        C772   1.358       .  A
C772        C813   1.486       .  S
C772        N773   1.366       .  A
C774        N775   1.357       .  A
C774        N779   1.359       .  A
C774        C780   1.444       .  S
N775        C776   1.361       .  A
C776        C804   1.491       .  S
C776        N777   1.364       .  A
N777        C778   1.367       .  A
C778        C809   1.491       .  S
C778        N779   1.361       .  A
C780        C781   1.211       .  T
C781        C782   1.421       .  S
C782        C783   1.211       .  T
C784        C785   1.208       .  T
C785        C786   1.416       .  S
C786        C787   1.208       .  T
C788        C789   1.344       .  D
C788        H790   1.086       .  S
C792        C793   1.343       .  D
C792        H794   1.086       .  S
C796        C797   1.343       .  D
C797        H799   1.087       .  S
C800        C801   1.340       .  D
C800        H802   1.086       .  S
C804        C805   1.349       .  D
C804        H806   1.087       .  S
C808        C809   1.344       .  D
C808        H810   1.087   1_545  S
C812        C813   1.341       .  D
C812        H814   1.087   1_545  S
C816        C817   1.342   1_565  D
C816        H818   1.086       .  S
C820        C857   1.449       .  S
C820        C933   1.472   1_565  S
N821        N843   1.320       .  A
N821       Co858   2.095   1_565  S
C822        C860   1.468       .  S
C822        H867   1.081   1_455  S
H823        C864   1.082       .  S
C824        N848   1.344       .  A
C824        H853   1.081       .  S
Co825       N833   2.075   1_554  S
Co825       N841   2.080   1_554  S
N826        N833   1.322   1_545  A
Co827       N830   2.087       .  S
Co827       N834   2.090   1_455  S
C828        C905   1.486       .  S
C828        N866   1.346       .  A
N829        N836   1.317       .  A
N829        N859   1.325       .  A
N829       Co862   2.089       .  S
N830        N848   1.321   1_455  A
N831        N841   1.322       .  A
H832        C857   1.081       .  S
N833        N854   1.321       .  A
N834        N852   1.320       .  A
C835        C863   1.460       .  S
C837        N865   1.342       .  A
C837        H871   1.082       .  S
C840        N861   1.348   1_455  A
N841        N847   1.321       .  A
N842        N844   1.320       .  A
N843        C857   1.337       .  A
N844        N872   1.321       .  A
N844       Co862   2.072       .  S
H845        C868   1.082       .  S
H846        C863   1.082       .  S
N849        N865   1.319       .  A
N849       Co858   2.071   1_565  S
C850        C925   1.482   1_565  S
C850        N854   1.343       .  A
C851        C870   1.447       .  S
C851        H855   1.082       .  S
N852        C863   1.339       .  A
C856        N872   1.345       .  A
C870        C913   1.475       .  S
C873        N874   1.364       .  A
C873        N878   1.363       .  A
C873        C904   1.452       .  S
N874        C875   1.365       .  A
C875        C914   1.475       .  S
C875        N876   1.351       .  A
N876        C877   1.351       .  A
C877        C918   1.474       .  S
C877        N878   1.363       .  A
C879        N880   1.365       .  A
C879        N884   1.361       .  A
C879        C901   1.452       .  S
N880        C881   1.366       .  A
C881        C906   1.488       .  S
C881        N882   1.358       .  A
N882        C883   1.360       .  A
C883        C910   1.486       .  S
C883        N884   1.360       .  A
C885        N886   1.355       .  A
C885        N890   1.360       .  A
C885        C900   1.437       .  S
N886        C887   1.355       .  A
C887        C934   1.477       .  S
C887        N888   1.361       .  A
N888        C889   1.359       .  A
C889        C930   1.481       .  S
C889        N890   1.363       .  A
C891        N892   1.356       .  A
C891        N896   1.358       .  A
C891        C897   1.438       .  S
N892        C893   1.359       .  A
C893        C921   1.487       .  S
C893        N894   1.364       .  A
N894        C895   1.367       .  A
C895        C926   1.489       .  S
C895        N896   1.359       .  A
C897        C898   1.207       .  T
C898        C899   1.414       .  S
C899        C900   1.207       .  T
C901        C902   1.215       .  T
C902        C903   1.428       .  S
C903        C904   1.215       .  T
C905        C906   1.343       .  D
C905        H907   1.087       .  S
C909        C910   1.344       .  D
C909        H911   1.087       .  S
C913        C914   1.336       .  D
C914        H916   1.087       .  S
C917        C918   1.337       .  D
C917        H919   1.086       .  S
C921        C922   1.350       .  D
C921        H923   1.086       .  S
C925        C926   1.342       .  D
C925        H927   1.087   1_545  S
C929        C930   1.343   1_565  D
C929        H931   1.087       .  S
C933        C934   1.340       .  D
C933        H935   1.086   1_545  S
