geometry optimzed in LAMMPS
_audit_creation_date              2020-12-01 
_audit_creation_method            'lammps2cif' 
_symmetry_space_group_name_H-M    'P1' 
_symmetry_Int_Tables_number       1 
_symmetry_cell_setting            triclinic 
loop_ 
_symmetry_equiv_pos_as_xyz 
  x,y,z 
_cell_length_a                    90.89336914 
_cell_length_b                    90.89079392312202 
_cell_length_c                    76.346858256637 
_cell_angle_alpha                 90.05191467875667 
_cell_angle_beta                  89.96708487121813 
_cell_angle_gamma                 90.01633332156224 
loop_ 
_atom_site_label 
_atom_site_type_symbol 
_atom_site_fract_x 
_atom_site_fract_y 
_atom_site_fract_z 
_atom_site_charge 
N1          N  0.69054154  0.35390053  0.81523467    -0.27100
N2          N  0.67963344  0.35399753  0.82665268    -0.34900
C3          C  0.68093578  0.36576361  0.83715621     0.01300
C4          C  0.69332495  0.37364623  0.83224676     0.07300
C5          C  0.69913817  0.36574185  0.81821089    -0.05800
H6          H  0.67319540  0.36840151  0.84743994     0.07900
H7          H  0.70887281  0.36835387  0.81068317     0.09100
Cu8        Cu  0.66316448  0.33841026  0.82742976     0.44200
Cu9        Cu  0.69270554  0.33727585  0.79647298     0.42000
Cu10       Cu  0.66387620  0.30831495  0.79704046     0.43900
N11         N  0.64699754  0.32250979  0.82652536    -0.34500
N12         N  0.64691149  0.31140164  0.81536254    -0.28700
C13         C  0.63466683  0.30332918  0.81821807    -0.04800
C14         C  0.62674604  0.30967457  0.83192466     0.07400
C15         C  0.63499422  0.32183485  0.83674117     0.01200
H16         H  0.63180525  0.29354357  0.81090696     0.08800
H17         H  0.63241052  0.32984263  0.84676166     0.07900
N18         N  0.68242712  0.30824404  0.78060500    -0.35900
N19         N  0.69260270  0.31867147  0.78031975    -0.28100
C20         C  0.70296541  0.31505305  0.76844922    -0.03300
C21         C  0.69928794  0.30165954  0.76081283     0.05300
C22         C  0.68614397  0.29774219  0.76892768     0.03400
H23         H  0.71260601  0.32166469  0.76583647     0.08500
H24         H  0.67969094  0.28794249  0.76660602     0.07300
N25         N  0.31738830  0.30886557  0.82177434    -0.27100
N26         N  0.31656535  0.31906283  0.83404827    -0.34900
C27         C  0.32847538  0.31825717  0.84438783     0.01300
C28         C  0.33745529  0.30696396  0.83846739     0.07300
C29         C  0.33000884  0.30124727  0.82400697    -0.05800
H30         H  0.33057026  0.32573066  0.85512189     0.07900
H31         H  0.33353760  0.29233008  0.81561470     0.09100
Cu32       Cu  0.29978782  0.33434565  0.83557901     0.44200
Cu33       Cu  0.30093579  0.30681576  0.80272043     0.42000
Cu34       Cu  0.27053320  0.33450324  0.80397254     0.43900
N35         N  0.28368203  0.35037205  0.83476439    -0.34500
N36         N  0.27298758  0.35081837  0.82306871    -0.28700
C37         C  0.26524100  0.36332896  0.82546549    -0.04800
C38         C  0.27136885  0.37105262  0.83942314     0.07400
C39         C  0.28301963  0.36241237  0.84492071     0.01200
H40         H  0.25603169  0.36666597  0.81743407     0.08800
H41         H  0.29092615  0.36497194  0.85505773     0.07900
N42         N  0.27190966  0.31694423  0.78630926    -0.35900
N43         N  0.28274263  0.30720309  0.78586860    -0.28100
C44         C  0.28001956  0.29742492  0.77302441    -0.03300
C45         C  0.26684347  0.30105332  0.76489380     0.05300
C46         C  0.26207130  0.31355211  0.77372797     0.03400
H47         H  0.28718655  0.28829548  0.76994150     0.08500
H48         H  0.25206477  0.31967565  0.77141266     0.07300
N49         N  0.31806742  0.72339095  0.82065781    -0.27100
N50         N  0.31722511  0.71297059  0.83264521    -0.34900
C51         C  0.32864617  0.71418707  0.84370043     0.01300
C52         C  0.33732951  0.72596144  0.83850287     0.07300
C53         C  0.33018325  0.73155073  0.82379045    -0.05800
H54         H  0.33060583  0.70668646  0.85442262     0.07900
H55         H  0.33369625  0.74060963  0.81563165     0.09100
Cu56       Cu  0.30131182  0.69675362  0.83268478     0.44200
Cu57       Cu  0.30269017  0.72512743  0.80036161     0.42000
Cu58       Cu  0.27453139  0.69574110  0.79793241     0.43900
N59         N  0.28561906  0.68043746  0.83036154    -0.34500
N60         N  0.27578695  0.67975382  0.81765728    -0.28700
C61         C  0.26753841  0.66756272  0.81999131    -0.04800
C62         C  0.27244157  0.66023247  0.83492674     0.07400
C63         C  0.28394703  0.66883322  0.84104174     0.01200
H64         H  0.25868515  0.66429313  0.81137306     0.08800
H65         H  0.29085429  0.66679655  0.85229838     0.07900
N66         N  0.27569360  0.71378819  0.78087305    -0.35900
N67         N  0.28571099  0.72433541  0.78183973    -0.28100
C68         C  0.28296196  0.73438452  0.76928992    -0.03300
C69         C  0.27061955  0.73005843  0.75983422     0.05300
C70         C  0.26637709  0.71689563  0.76765078     0.03400
H71         H  0.28948799  0.74419236  0.76734806     0.08500
H72         H  0.25702448  0.71012596  0.76424529     0.07300
N73         N  0.64407993  0.72397187  0.81505853    -0.27100
N74         N  0.64261286  0.71227783  0.82515171    -0.34900
C75         C  0.63042351  0.71365178  0.83493103     0.01300
C76         C  0.62373846  0.72689624  0.83085838     0.07300
C77         C  0.63271405  0.73314155  0.81812038    -0.05800
H78         H  0.62664244  0.70543393  0.84412831     0.07900
H79         H  0.63116998  0.74358801  0.81160800     0.09100
Cu80       Cu  0.65715811  0.69495111  0.82530738     0.44200
Cu81       Cu  0.66161657  0.72635544  0.79765661     0.42000
Cu82       Cu  0.68852605  0.69605334  0.79644869     0.43900
N83         N  0.67325895  0.67906149  0.82500915    -0.34500
N84         N  0.68488405  0.67926430  0.81463407    -0.28700
C85         C  0.69307335  0.66721907  0.81794363    -0.04800
C86         C  0.68621890  0.65907553  0.83106405     0.07400
C87         C  0.67367831  0.66702162  0.83512967     0.01200
H88         H  0.70321458  0.66460767  0.81122009     0.08800
H89         H  0.66524545  0.66423906  0.84455031     0.07900
N90         N  0.68920673  0.71450084  0.78011767    -0.35900
N91         N  0.67966058  0.72547505  0.78076963    -0.28100
C92         C  0.68344983  0.73564071  0.76876857    -0.03300
C93         C  0.69599378  0.73091797  0.75999770     0.05300
C94         C  0.69925633  0.71741390  0.76761763     0.03400
H95         H  0.67739985  0.74571494  0.76662136     0.08500
H96         H  0.70836310  0.71022435  0.76450805     0.07300
N97         N  0.48212482  0.74860629  0.87083966    -0.03300
C98         C  0.47036858  0.74721970  0.85993358    -0.00700
C99         C  0.47444682  0.75023597  0.84286680    -0.23600
C100        C  0.48912210  0.75365379  0.84317797    -0.23800
C101        C  0.49361086  0.75250972  0.86040283    -0.00800
H102        H  0.46743951  0.75006704  0.83140840     0.13000
H103        H  0.49593727  0.75615746  0.83193559     0.13000
N104        N  0.25534468  0.51706933  0.87036748    -0.03300
C105        C  0.25789268  0.50536446  0.85965431    -0.00700
C106        C  0.25643180  0.50947588  0.84232234    -0.23600
C107        C  0.25280723  0.52410329  0.84226837    -0.23800
C108        C  0.25224069  0.52858735  0.85957546    -0.00800
H109        H  0.25765093  0.50250265  0.83091056     0.13000
H110        H  0.25117770  0.53086264  0.83076598     0.13000
N111        N  0.48321720  0.29110754  0.87059420    -0.03300
C112        C  0.47140331  0.29330473  0.85991592    -0.00700
C113        C  0.47558081  0.29213990  0.84255290    -0.23600
C114        C  0.49032501  0.28905862  0.84241402    -0.23800
C115        C  0.49482394  0.28856025  0.85968843    -0.00800
H116        H  0.46857766  0.29321251  0.83116108     0.13000
H117        H  0.49715988  0.28780780  0.83089198     0.13000
N118        N  0.71422264  0.51599099  0.86797144    -0.03300
C119        C  0.71279225  0.52754777  0.85681359    -0.00700
C120        C  0.71541039  0.52316352  0.83977185    -0.23600
C121        C  0.71856487  0.50843085  0.84034092    -0.23800
C122        C  0.71766187  0.50424607  0.85771220    -0.00800
H123        H  0.71493931  0.52995929  0.82814854     0.13000
H124        H  0.72066907  0.50138186  0.82918243     0.13000
N125        N  0.75446145  0.01537470  0.53626806    -0.03300
C126        C  0.75654662  0.02693215  0.54734649    -0.00700
C127        C  0.75456941  0.02255540  0.56451401    -0.23600
C128        C  0.75113338  0.00789401  0.56410901    -0.23800
C129        C  0.75119003  0.00367198  0.54670309    -0.00800
H130        H  0.75541252  0.02935896  0.57611641     0.13000
H131        H  0.74925939  0.00092894  0.57538605     0.13000
N132        N  0.82075610  0.22308312  0.58653533    -0.27100
N133        N  0.82023900  0.21280416  0.57431941    -0.34900
C134        C  0.83204466  0.21402614  0.56385286     0.01300
C135        C  0.84059343  0.22567488  0.56964544     0.07300
C136        C  0.83306004  0.23114856  0.58414872    -0.05800
H137        H  0.83433439  0.20667775  0.55304723     0.07900
H138        H  0.83623902  0.24031304  0.59236032     0.09100
Cu139      Cu  0.80386900  0.19714054  0.57257856     0.44200
Cu140      Cu  0.80426335  0.22522846  0.60549132     0.42000
Cu141      Cu  0.77402039  0.19792914  0.60321244     0.43900
N142        N  0.78759357  0.18132460  0.57323519    -0.34500
N143        N  0.77662118  0.18128674  0.58457244    -0.28700
C144        C  0.76862192  0.16895034  0.58214187    -0.04800
C145        C  0.77489429  0.16086125  0.56855782     0.07400
C146        C  0.78689637  0.16916363  0.56329509     0.01200
H147        H  0.75911859  0.16600793  0.58991024     0.08800
H148        H  0.79495800  0.16637536  0.55341784     0.07900
N149        N  0.77474608  0.21565548  0.62066205    -0.35900
N150        N  0.78562137  0.22531231  0.62160373    -0.28100
C151        C  0.78250812  0.23516412  0.63426297    -0.03300
C152        C  0.76900710  0.23164291  0.64175030     0.05300
C153        C  0.76447314  0.21916583  0.63268398     0.03400
H154        H  0.78960694  0.24427891  0.63762564     0.08500
H155        H  0.75442597  0.21300726  0.63459342     0.07300
N156        N  0.20948084  0.01672171  0.53550843    -0.03300
C157        C  0.20775624  0.00515143  0.54662685    -0.00700
C158        C  0.20937567  0.00975352  0.56379056    -0.23600
C159        C  0.21225417  0.02454987  0.56329706    -0.23800
C160        C  0.21219271  0.02860161  0.54586229    -0.00800
H161        H  0.20876733  0.00300300  0.57544320     0.13000
H162        H  0.21382615  0.03168769  0.57449920     0.13000
N163        N  0.98484402  0.24238298  0.53414897    -0.03300
C164        C  0.97304385  0.24453552  0.54485982    -0.00700
C165        C  0.97731585  0.24403138  0.56220960    -0.23600
C166        C  0.99215148  0.24140099  0.56231360    -0.23800
C167        C  0.99657960  0.24047688  0.54501892    -0.00800
H168        H  0.97030240  0.24511622  0.57360231     0.13000
H169        H  0.99905073  0.24048652  0.57381488     0.13000
N170        N  0.15063287  0.22602851  0.58462141    -0.27100
N171        N  0.15138846  0.21593216  0.57220759    -0.34900
C172        C  0.13954648  0.21700098  0.56179838     0.01300
C173        C  0.13070201  0.22832331  0.56786495     0.07300
C174        C  0.13812194  0.23380151  0.58243700    -0.05800
H175        H  0.13729008  0.20957867  0.55105464     0.07900
H176        H  0.13460970  0.24261306  0.59099471     0.09100
Cu177      Cu  0.16745764  0.19994779  0.57092170     0.44200
Cu178      Cu  0.16666030  0.22781265  0.60414998     0.42000
Cu179      Cu  0.19420453  0.19786742  0.60525537     0.43900
N180        N  0.18212858  0.18276067  0.57333243    -0.34500
N181        N  0.19187072  0.18163635  0.58607722    -0.28700
C182        C  0.19913497  0.16879148  0.58423310    -0.04800
C183        C  0.19368109  0.16150417  0.56954981     0.07400
C184        C  0.18288618  0.17078916  0.56307542     0.01200
H185        H  0.20768844  0.16505464  0.59300312     0.08800
H186        H  0.17575877  0.16891098  0.55196686     0.07900
N187        N  0.19409939  0.21595738  0.62215949    -0.35900
N188        N  0.18425678  0.22667914  0.62174784    -0.28100
C189        C  0.18765566  0.23664257  0.63416555    -0.03300
C190        C  0.20027543  0.23207876  0.64289940     0.05300
C191        C  0.20397633  0.21886450  0.63484618     0.03400
H192        H  0.18139419  0.24656649  0.63645847     0.08500
H193        H  0.21325814  0.21186107  0.63779305     0.07300
N194        N  0.98404247  0.79630269  0.53449611    -0.03300
C195        C  0.99564280  0.79415948  0.54551010    -0.00700
C196        C  0.99110647  0.79508890  0.56275833    -0.23600
C197        C  0.97632380  0.79794766  0.56249834    -0.23800
C198        C  0.97219828  0.79857853  0.54510591    -0.00800
H199        H  0.99790788  0.79405827  0.57432767     0.13000
H200        H  0.96923689  0.79911467  0.57381588     0.13000
N201        N  0.19376304  0.85085502  0.58412046    -0.27100
N202        N  0.18434803  0.84936282  0.57106945    -0.34900
C203        C  0.18541586  0.86102141  0.56036837     0.01300
C204        C  0.19598502  0.87051655  0.56693338     0.07300
C205        C  0.20107646  0.86364905  0.58205498    -0.05800
H206        H  0.17836137  0.86278032  0.54916477     0.07900
H207        H  0.20920985  0.86778128  0.59114559     0.09100
Cu208      Cu  0.16886421  0.83280167  0.56947028     0.44200
Cu209      Cu  0.19524408  0.83551359  0.60440459     0.42000
Cu210      Cu  0.16648490  0.80676005  0.60444726     0.43900
N211        N  0.15164671  0.81813430  0.57193011    -0.34500
N212        N  0.15036425  0.80870989  0.58499429    -0.28700
C213        C  0.13732481  0.80172520  0.58349102    -0.04800
C214        C  0.13007326  0.80703714  0.56872187     0.07400
C215        C  0.13959856  0.81742178  0.56179032     0.01200
H216        H  0.13335376  0.79356492  0.59264350     0.08800
H217        H  0.13771385  0.82445797  0.55060153     0.07900
N218        N  0.18442936  0.80734329  0.62165815    -0.35900
N219        N  0.19467265  0.81770035  0.62168896    -0.28100
C220        C  0.20482648  0.81439501  0.63391415    -0.03300
C221        C  0.20090587  0.80129236  0.64204758     0.05300
C222        C  0.18785153  0.79721989  0.63388277     0.03400
H223        H  0.21447900  0.82101075  0.63645728     0.08500
H224        H  0.18145180  0.78739502  0.63626916     0.07300
N225        N  0.81761530  0.80864882  0.58472949    -0.27100
N226        N  0.81683541  0.81932279  0.57304466    -0.34900
C227        C  0.82874793  0.81885291  0.56266324     0.01300
C228        C  0.83767470  0.80733525  0.56798075     0.07300
C229        C  0.83020506  0.80109097  0.58207769    -0.05800
H230        H  0.83097520  0.82678751  0.55245755     0.07900
H231        H  0.83374671  0.79191377  0.59002944     0.09100
Cu232      Cu  0.80042447  0.83505322  0.57248054     0.44200
Cu233      Cu  0.80144113  0.80579895  0.60393370     0.42000
Cu234      Cu  0.77231196  0.83468750  0.60491363     0.43900
N235        N  0.78456669  0.85127814  0.57427159    -0.34500
N236        N  0.77416933  0.85147105  0.58634319    -0.28700
C237        C  0.76596700  0.86370597  0.58415463    -0.04800
C238        C  0.77149225  0.87156910  0.56993474     0.07400
C239        C  0.78331332  0.86325594  0.56410543     0.01200
H240        H  0.75668947  0.86661730  0.59232288     0.08800
H241        H  0.79073141  0.86578998  0.55345461     0.07900
N242        N  0.77292347  0.81610597  0.62104306    -0.35900
N243        N  0.78327687  0.80585360  0.62080011    -0.28100
C244        C  0.77987951  0.79544574  0.63270325    -0.03300
C245        C  0.76672536  0.79921665  0.64082660     0.05300
C246        C  0.76271749  0.81242032  0.63304327     0.03400
H247        H  0.78641093  0.78569173  0.63497878     0.08500
H248        H  0.75305578  0.81895347  0.63582712     0.07300
N249        N  0.69210785  0.35353765  0.08543478    -0.27100
N250        N  0.68223671  0.35281242  0.07278787    -0.34900
C251        C  0.68351804  0.36467454  0.06244824     0.01300
C252        C  0.69477077  0.37347741  0.06880276     0.07300
C253        C  0.69996655  0.36601238  0.08346701    -0.05800
H254        H  0.67637200  0.36688404  0.05144556     0.07900
H255        H  0.70870440  0.36941364  0.09218381     0.05900
Cu256      Cu  0.66658485  0.33645372  0.07083408     0.44200
Cu257      Cu  0.69376031  0.33736365  0.10471304     0.42000
Cu258      Cu  0.66567426  0.30810932  0.10373508     0.43900
N259        N  0.65006889  0.32094062  0.07250836    -0.34500
N260        N  0.64954177  0.31049044  0.08450602    -0.28700
C261        C  0.63705294  0.30271367  0.08228159    -0.04800
C262        C  0.62931500  0.30866551  0.06827481     0.07400
C263        C  0.63798189  0.32019758  0.06244915     0.01200
H264        H  0.63367695  0.29368246  0.09058051     0.08800
H265        H  0.63567917  0.32764514  0.05175762     0.07900
N266        N  0.68338036  0.30869687  0.12113470    -0.35900
N267        N  0.69341253  0.31924257  0.12148143    -0.28100
C268        C  0.70344015  0.31604947  0.13386563    -0.03300
C269        C  0.69964773  0.30282684  0.14179513     0.05300
C270        C  0.68680429  0.29854551  0.13331337     0.03400
H271        H  0.71295445  0.32280965  0.13658260     0.08500
H272        H  0.68042239  0.28869918  0.13562247     0.07300
N273        N  0.27518980  0.35000903  0.08248477    -0.27100
N274        N  0.28735465  0.35110132  0.07309340    -0.34900
C275        C  0.28706002  0.36364883  0.06385640     0.01300
C276        C  0.27407548  0.37101597  0.06750071     0.07300
C277        C  0.26681878  0.36200862  0.07946440    -0.05800
H278        H  0.29591975  0.36725575  0.05543444     0.07900
H279        H  0.25628638  0.36403112  0.08560341     0.09100
Cu280      Cu  0.30430948  0.33596935  0.07334831     0.44200
Cu281      Cu  0.27123895  0.33223157  0.09927591     0.42000
Cu282      Cu  0.30142117  0.30491839  0.10150765     0.43900
N283        N  0.32037801  0.31993935  0.07470549    -0.34500
N284        N  0.31953469  0.30837124  0.08509794    -0.28700
C285        C  0.33178058  0.30017089  0.08294546    -0.04800
C286        C  0.34072675  0.30691169  0.07049087     0.07400
C287        C  0.33304284  0.31944378  0.06565584     0.01200
H288        H  0.33394776  0.29003634  0.08988750     0.08800
H289        H  0.33644063  0.32778892  0.05641572     0.07900
N290        N  0.28230831  0.30429024  0.11679615    -0.35900
N291        N  0.27141588  0.31392739  0.11593979    -0.28100
C292        C  0.26108976  0.31023219  0.12784478    -0.03300
C293        C  0.26564817  0.29767871  0.13674920     0.05300
C294        C  0.27917806  0.29429923  0.12926177     0.03400
H295        H  0.25109167  0.31642176  0.12996954     0.08500
H296        H  0.28637932  0.28527791  0.13263054     0.07300
N297        N  0.31725136  0.72486355  0.08319798    -0.27100
N298        N  0.31684802  0.71420965  0.07142868    -0.34900
C299        C  0.32916153  0.71461460  0.06172845     0.01300
C300        C  0.33793740  0.72603523  0.06764218     0.07300
C301        C  0.33000762  0.73230522  0.08133974    -0.05800
H302        H  0.33177915  0.70670614  0.05160357     0.07900
H303        H  0.33332947  0.74144806  0.08950801     0.09100
Cu304      Cu  0.30037178  0.69857903  0.06994544     0.44200
Cu305      Cu  0.30035671  0.72792000  0.10141973     0.42000
Cu306      Cu  0.27111326  0.69947180  0.10128599     0.43900
N307        N  0.28419153  0.68262585  0.07120764    -0.34500
N308        N  0.27344768  0.68264473  0.08285362    -0.28700
C309        C  0.26528151  0.67039445  0.08060384    -0.04800
C310        C  0.27119309  0.66228938  0.06681082     0.07400
C311        C  0.28317958  0.67048570  0.06124936     0.01200
H312        H  0.25584268  0.66756752  0.08854893     0.08800
H313        H  0.29096238  0.66766456  0.05107190     0.07900
N314        N  0.27136951  0.71795247  0.11758266    -0.35900
N315        N  0.28180359  0.72811416  0.11763321    -0.28100
C316        C  0.27834118  0.73848898  0.12954636    -0.03300
C317        C  0.26506794  0.73478286  0.13746140     0.05300
C318        C  0.26104213  0.72164352  0.12945339     0.03400
H319        H  0.28506852  0.74804940  0.13215264     0.08500
H320        H  0.25125729  0.71520338  0.13190141     0.07300
N321        N  0.69075704  0.68352308  0.08250966    -0.27100
N322        N  0.68037844  0.68422274  0.07045063    -0.34900
C323        C  0.68081623  0.67206205  0.06048297     0.01300
C324        C  0.69204710  0.66307042  0.06645232     0.07300
C325        C  0.69811675  0.67074518  0.08050556    -0.05800
H326        H  0.67313261  0.66980404  0.05001461     0.07900
H327        H  0.70710687  0.66727445  0.08879518     0.09100
Cu328      Cu  0.66517289  0.70094822  0.06886159     0.44200
Cu329      Cu  0.69354461  0.70005083  0.10133597     0.42000
Cu330      Cu  0.66508956  0.72910678  0.10195496     0.43900
N331        N  0.64901142  0.71672383  0.07079006    -0.34500
N332        N  0.64858277  0.72700231  0.08300928    -0.28700
C333        C  0.63609426  0.73483452  0.08099205    -0.04800
C334        C  0.62831769  0.72916210  0.06677793     0.07400
C335        C  0.63696161  0.71768111  0.06073002     0.01200
H336        H  0.63288569  0.74385954  0.08939926     0.08800
H337        H  0.63457715  0.71019324  0.05009816     0.07900
N338        N  0.68321322  0.72837399  0.11885415    -0.35900
N339        N  0.69337776  0.71794375  0.11864007    -0.28100
C340        C  0.70341534  0.72087534  0.13114299    -0.03300
C341        C  0.69949597  0.73379354  0.13970796     0.05300
C342        C  0.68659183  0.73819054  0.13147418     0.03400
H343        H  0.71298120  0.71412429  0.13361370     0.08500
H344        H  0.68003577  0.74779944  0.13444171     0.07300
N345        N  0.71350520  0.51782988  0.03317694    -0.03300
C346        C  0.71628770  0.50622678  0.04394867    -0.00700
C347        C  0.71626118  0.51074539  0.06124586    -0.23600
C348        C  0.71321633  0.52550285  0.06123625    -0.23800
C349        C  0.71158707  0.52962041  0.04393780    -0.00800
H350        H  0.71768475  0.50389946  0.07271489     0.13000
H351        H  0.71225137  0.53251230  0.07265021     0.13000
N352        N  0.48415374  0.74331855  0.03576653    -0.03300
C353        C  0.49579375  0.74676820  0.04618004    -0.00700
C354        C  0.49169478  0.74639242  0.06361481    -0.23600
C355        C  0.47713890  0.74244497  0.06402732    -0.23800
C356        C  0.47274067  0.74065298  0.04683638    -0.00800
H357        H  0.49868096  0.74829528  0.07486960     0.13000
H358        H  0.47040073  0.74121479  0.07563040     0.13000
N359        N  0.25610555  0.51678465  0.03580138    -0.03300
C360        C  0.25835683  0.50527631  0.04691628    -0.00700
C361        C  0.25767296  0.50998826  0.06411710    -0.23600
C362        C  0.25483026  0.52477402  0.06371131    -0.23800
C363        C  0.25396006  0.52873897  0.04627572    -0.00800
H364        H  0.25889441  0.50331198  0.07576075     0.13000
H365        H  0.25385757  0.53196746  0.07496130     0.13000
N366        N  0.48591963  0.28307681  0.03555302    -0.03300
C367        C  0.49803218  0.27970993  0.04521190    -0.00700
C368        C  0.49421567  0.27755141  0.06254298    -0.23600
C369        C  0.47933673  0.27985060  0.06372000    -0.23800
C370        C  0.47447577  0.28321619  0.04705178    -0.00800
H371        H  0.50158529  0.27526176  0.07333490     0.13000
H372        H  0.47275618  0.27928604  0.07552254     0.13000
N373        N  0.98223554  0.78762708  0.36928309    -0.03300
C374        C  0.99366511  0.78389033  0.35862069    -0.00700
C375        C  0.98890454  0.78240101  0.34152205    -0.23600
C376        C  0.97416147  0.78548847  0.34148748    -0.23800
C377        C  0.97029046  0.78864122  0.35858631    -0.00800
H378        H  0.99558142  0.77993647  0.33014648     0.13000
H379        H  0.96697619  0.78537732  0.33018416     0.13000
N380        N  0.14666876  0.80949529  0.31617831    -0.27100
N381        N  0.14746743  0.81904003  0.32918227    -0.34900
C382        C  0.13552963  0.81771481  0.33940447     0.01300
C383        C  0.12657525  0.80674715  0.33263609     0.07300
C384        C  0.13406786  0.80176883  0.31783648    -0.05800
H385        H  0.13342889  0.82462387  0.35065804     0.07900
H386        H  0.13056488  0.79332845  0.30876200     0.09100
Cu387      Cu  0.16408066  0.83431600  0.33188132     0.44200
Cu388      Cu  0.16285576  0.80832878  0.29671913     0.42000
Cu389      Cu  0.19201634  0.83650546  0.29835978     0.43900
N390        N  0.17983114  0.85062374  0.33108367    -0.34500
N391        N  0.18992812  0.85180865  0.31871249    -0.28700
C392        C  0.19761884  0.86428751  0.32145164    -0.04800
C393        C  0.19208571  0.87124738  0.33630735     0.07400
C394        C  0.18081714  0.86217074  0.34199238     0.01200
H395        H  0.20642166  0.86808780  0.31306730     0.08800
H396        H  0.17340055  0.86405712  0.35284552     0.07900
N397        N  0.19115103  0.81949294  0.27987122    -0.35900
N398        N  0.18064003  0.80942444  0.27932299    -0.28100
C399        C  0.18355412  0.79994322  0.26621155    -0.03300
C400        C  0.19656169  0.80410797  0.25799672     0.05300
C401        C  0.20099734  0.81662226  0.26709554     0.03400
H402        H  0.17670591  0.79057575  0.26311388     0.08500
H403        H  0.21080195  0.82308977  0.26485771     0.07300
N404        N  0.20970050  0.01595128  0.37010102    -0.03300
C405        C  0.20739888  0.00414133  0.35947446    -0.00700
C406        C  0.20871585  0.00816056  0.34209320    -0.23600
C407        C  0.21197955  0.02285863  0.34188608    -0.23800
C408        C  0.21247504  0.02743090  0.35914699    -0.00800
H409        H  0.20760014  0.00108623  0.33075593     0.13000
H410        H  0.21342151  0.02960637  0.33033468     0.13000
N411        N  0.98173890  0.24525845  0.36875462    -0.03300
C412        C  0.96964071  0.24853800  0.35897798    -0.00700
C413        C  0.97337710  0.24969304  0.34147390    -0.23600
C414        C  0.98812417  0.24687296  0.34028698    -0.23800
C415        C  0.99302894  0.24415920  0.35709490    -0.00800
H416        H  0.96602047  0.25171404  0.33059414     0.13000
H417        H  0.99460198  0.24670724  0.32838422     0.13000
N418        N  0.18971992  0.17849682  0.31461846    -0.27100
N419        N  0.17996864  0.17946544  0.32738907    -0.34900
C420        C  0.18151167  0.16793202  0.33819744     0.01300
C421        C  0.19283729  0.15911472  0.33204254     0.07300
C422        C  0.19779003  0.16622502  0.31700867    -0.05800
H423        H  0.17451629  0.16597182  0.34941016     0.07900
H424        H  0.20648058  0.16270408  0.30828958     0.09100
Cu425      Cu  0.16418642  0.19571815  0.32898319     0.44200
Cu426      Cu  0.19096320  0.19396577  0.29447539     0.42000
Cu427      Cu  0.16255681  0.22277498  0.29459094     0.43900
N428        N  0.14747983  0.21096874  0.32682485    -0.34500
N429        N  0.14651666  0.22074613  0.31408962    -0.28700
C430        C  0.13376172  0.22816647  0.31589989    -0.04800
C431        C  0.12636982  0.22278887  0.33053040     0.07400
C432        C  0.13550134  0.21189473  0.33705818     0.01200
H433        H  0.13010007  0.23670208  0.30706570     0.08800
H434        H  0.13341856  0.20471259  0.34806675     0.07900
N435        N  0.18023655  0.22203359  0.27704843    -0.35900
N436        N  0.19036675  0.21158482  0.27694544    -0.28100
C437        C  0.20041502  0.21470131  0.26452241    -0.03300
C438        C  0.19656840  0.22780834  0.25634527     0.05300
C439        C  0.18362996  0.23205321  0.26468850     0.03400
H440        H  0.21000404  0.20800099  0.26198169     0.08500
H441        H  0.17726801  0.24189641  0.26231990     0.07300
N442        N  0.75261635  0.01433038  0.37108464    -0.03300
C443        C  0.75320339  0.02572367  0.35950236    -0.00700
C444        C  0.74995108  0.02085551  0.34278663    -0.23600
C445        C  0.74731031  0.00607225  0.34394552    -0.23800
C446        C  0.74910594  0.00227234  0.36132105    -0.00800
H447        H  0.74955049  0.02740690  0.33096135     0.13000
H448        H  0.74485970  0.99875225  0.33314057     0.13000
N449        N  0.77460406  0.17940514  0.31482087    -0.27100
N450        N  0.78468780  0.17982047  0.32726169    -0.34900
C451        C  0.78352575  0.16778101  0.33730575     0.01300
C452        C  0.77213923  0.15915587  0.33102173     0.07300
C453        C  0.76673017  0.16689143  0.31665135    -0.05800
H454        H  0.79084880  0.16531227  0.34806592     0.07900
H455        H  0.75781696  0.16364533  0.30810097     0.09100
Cu456      Cu  0.80054540  0.19592408  0.32961541     0.44200
Cu457      Cu  0.77286485  0.19609881  0.29602457     0.42000
Cu458      Cu  0.80223155  0.22451366  0.29782892     0.43900
N459        N  0.81740577  0.21109052  0.32887701    -0.34500
N460        N  0.81832891  0.22163726  0.31706241    -0.28700
C461        C  0.83097477  0.22908783  0.31963727    -0.04800
C462        C  0.83839699  0.22286206  0.33377408     0.07400
C463        C  0.82932875  0.21147994  0.33923976     0.01200
H464        H  0.83458494  0.23815884  0.31155571     0.08800
H465        H  0.83124836  0.20381657  0.34980976     0.07900
N466        N  0.78456477  0.22466758  0.28029452    -0.35900
N467        N  0.77410588  0.21453963  0.27962247    -0.28100
C468        C  0.76442418  0.21826253  0.26703316    -0.03300
C469        C  0.76889952  0.23138284  0.25932706     0.05300
C470        C  0.78175992  0.23504224  0.26815607     0.03400
H471        H  0.75476527  0.21184989  0.26388028     0.08500
H472        H  0.78855850  0.24465339  0.26614715     0.07300
N473        N  0.77483447  0.85066940  0.31898208    -0.27100
N474        N  0.78476077  0.84996186  0.33156538    -0.34900
C475        C  0.78346642  0.86174592  0.34203028     0.01300
C476        C  0.77213752  0.87050060  0.33585588     0.07300
C477        C  0.76690548  0.86308907  0.32113912    -0.05800
H478        H  0.79062381  0.86390651  0.35303997     0.07900
H479        H  0.75807429  0.86647801  0.31255754     0.09100
Cu480      Cu  0.80031384  0.83359973  0.33364030     0.44200
Cu481      Cu  0.77327026  0.83442588  0.29967126     0.42000
Cu482      Cu  0.80147125  0.80502434  0.30140229     0.43900
N483        N  0.81634227  0.81760598  0.33320095    -0.34500
N484        N  0.81712655  0.80715273  0.32122242    -0.28700
C485        C  0.82940426  0.79919380  0.32405771    -0.04800
C486        C  0.83664906  0.80493724  0.33859207     0.07400
C487        C  0.82795475  0.81660354  0.34397637     0.01200
H488        H  0.83288476  0.79007914  0.31594367     0.08800
H489        H  0.83016380  0.82426235  0.35449950     0.07900
N490        N  0.78402010  0.80562128  0.28364561    -0.35900
N491        N  0.77397034  0.81614568  0.28303640    -0.28100
C492        C  0.76417213  0.81287056  0.27041051    -0.03300
C493        C  0.76813515  0.79962988  0.26261055     0.05300
C494        C  0.78083519  0.79542182  0.27140327     0.03400
H495        H  0.75479230  0.81968329  0.26727650     0.08500
H496        H  0.78721813  0.78553644  0.26933133     0.07300
C497        C  0.76761673  0.14451110  0.33788658    -0.03100
C498        C  0.77190975  0.14010494  0.35482311    -0.08900
C499        C  0.76868698  0.12598414  0.36099444    -0.16600
C500        C  0.76107754  0.11599741  0.35040752     0.25600
C501        C  0.75640402  0.12037602  0.33369650    -0.18200
C502        C  0.75959481  0.13455237  0.32749085    -0.07200
C503        C  0.75895691  0.10101457  0.35625208    -0.13600
C504        C  0.75817543  0.08813628  0.36013987    -0.13300
C505        C  0.75829888  0.07234782  0.36241918     0.25500
C506        C  0.74880469  0.06528492  0.37426759    -0.18700
C507        C  0.74792663  0.04983306  0.37459617    -0.07200
C508        C  0.75652657  0.04140259  0.36303887    -0.03300
C509        C  0.76654624  0.04859152  0.35193738    -0.08600
C510        C  0.76743152  0.06390376  0.35164406    -0.16200
H511        H  0.77789455  0.14750666  0.36333167     0.11900
H512        H  0.77239035  0.12276706  0.37392242     0.11200
H513        H  0.75057341  0.11272660  0.32530947     0.11100
H514        H  0.75617313  0.13752965  0.31439056     0.11700
H515        H  0.74165707  0.07169749  0.38267846     0.11700
H516        H  0.73991764  0.04454784  0.38300534     0.11700
H517        H  0.77317896  0.04232785  0.34279191     0.11800
H518        H  0.77481971  0.06917657  0.34243703     0.10700
C519        C  0.76745336  0.88497617  0.34307934    -0.03100
C520        C  0.75852005  0.89456786  0.33329150    -0.08900
C521        C  0.75492038  0.90852912  0.33981557    -0.16600
C522        C  0.76012650  0.91308221  0.35622909     0.25600
C523        C  0.76873874  0.90350634  0.36620700    -0.18200
C524        C  0.77235136  0.88957389  0.35972749    -0.07200
C525        C  0.75714747  0.92777881  0.36247486    -0.13600
C526        C  0.75491226  0.94043650  0.36652459    -0.13300
C527        C  0.75219759  0.95595530  0.36888183     0.25500
C528        C  0.73942285  0.96210889  0.36180094    -0.18700
C529        C  0.73786896  0.97736372  0.36084394    -0.07200
C530        C  0.74903811  0.98670359  0.36703032    -0.03300
C531        C  0.76136647  0.98052325  0.37532773    -0.08600
C532        C  0.76296613  0.96517863  0.37617953    -0.16200
H533        H  0.75458559  0.89146516  0.32043531     0.11900
H534        H  0.74826954  0.91586451  0.33192985     0.11200
H535        H  0.77282949  0.90687422  0.37892269     0.11100
H536        H  0.77906361  0.88248047  0.36779655     0.11700
H537        H  0.73104015  0.95512916  0.35606606     0.11700
H538        H  0.72832531  0.98189677  0.35429151     0.11700
H539        H  0.77023185  0.98750016  0.37989826     0.11800
H540        H  0.77295218  0.96054890  0.38160747     0.10700
C541        C  0.00859090  0.24058925  0.36071978    -0.03100
C542        C  0.01544273  0.22978902  0.35038570    -0.08900
C543        C  0.03069774  0.22826910  0.35041399    -0.16600
C544        C  0.03937152  0.23755947  0.36072311     0.25600
C545        C  0.03260948  0.24792037  0.37174890    -0.18200
C546        C  0.01722848  0.24942078  0.37177793    -0.07200
C547        C  0.05513718  0.23698938  0.35873786    -0.13600
C548        C  0.06801571  0.23578299  0.35512092    -0.13300
C549        C  0.08296910  0.23342241  0.34944014     0.25500
C550        C  0.09267274  0.22536353  0.35989908    -0.18700
C551        C  0.10685199  0.22216156  0.35388281    -0.07200
C552        C  0.11156465  0.22693702  0.33724090    -0.03300
C553        C  0.10181042  0.23528830  0.32695402    -0.08600
C554        C  0.08760850  0.23846489  0.33300474    -0.16200
H555        H  0.00898751  0.22296497  0.34164167     0.11900
H556        H  0.03576779  0.22023856  0.34181970     0.11200
H557        H  0.03922709  0.25521246  0.37974616     0.11100
H558        H  0.01218099  0.25800435  0.37957704     0.11700
H559        H  0.08921179  0.22136183  0.37261485     0.11700
H560        H  0.11405473  0.21586800  0.36229233     0.11700
H561        H  0.10498163  0.23908724  0.31407161     0.11800
H562        H  0.08015896  0.24463710  0.32472576     0.10700
C563        C  0.95406905  0.24858429  0.36476403    -0.03100
C564        C  0.94832330  0.23695526  0.37478733    -0.08900
C565        C  0.93304816  0.23484896  0.37588723    -0.16600
C566        C  0.92344842  0.24438203  0.36704674     0.25600
C567        C  0.92912926  0.25657094  0.35816546    -0.18200
C568        C  0.94430860  0.25866646  0.35704744    -0.07200
C569        C  0.90806279  0.24082498  0.36505336    -0.13600
C570        C  0.89551185  0.23792888  0.36113101    -0.13300
C571        C  0.88096310  0.23444620  0.35476070     0.25500
C572        C  0.87436624  0.24327235  0.34194947    -0.18700
C573        C  0.86052194  0.23958806  0.33518227    -0.07200
C574        C  0.85303830  0.22697126  0.34110828    -0.03300
C575        C  0.85978445  0.21820742  0.35405589    -0.08600
C576        C  0.87361861  0.22191425  0.36078660    -0.16200
H577        H  0.95559159  0.22887132  0.38056811     0.11900
H578        H  0.92878711  0.22532214  0.38273487     0.11200
H579        H  0.92185773  0.26400015  0.35123080     0.11100
H580        H  0.94846908  0.26767453  0.34919163     0.11700
H581        H  0.87997688  0.25296259  0.33708417     0.11700
H582        H  0.85574320  0.24664308  0.32530974     0.11700
H583        H  0.85452085  0.20836614  0.35893378     0.11800
H584        H  0.87864128  0.21491685  0.37058588     0.10700
C585        C  0.21409400  0.04313059  0.36387398    -0.03100
C586        C  0.22466975  0.05160592  0.35502133    -0.08900
C587        C  0.22415849  0.06693499  0.35564758    -0.16600
C588        C  0.21304880  0.07401663  0.36510350     0.25600
C589        C  0.20299851  0.06566138  0.37488581    -0.18200
C590        C  0.20353509  0.05024564  0.37431467    -0.07200
C591        C  0.21097626  0.08961576  0.36284461    -0.13600
C592        C  0.20886830  0.10229803  0.35890527    -0.13300
C593        C  0.20571127  0.11694649  0.35274128     0.25500
C594        C  0.19635292  0.12611483  0.36233185    -0.18700
C595        C  0.19244209  0.13992976  0.35578244    -0.07200
C596        C  0.19777227  0.14479300  0.33943768    -0.03300
C597        C  0.20745144  0.13560123  0.33006754    -0.08600
C598        C  0.21135680  0.12177320  0.33666752    -0.16200
H599        H  0.23283804  0.04634271  0.34679468     0.11900
H600        H  0.23194095  0.07325185  0.34796013     0.11200
H601        H  0.19427358  0.07103120  0.38214618     0.11100
H602        H  0.19508984  0.04395453  0.38094861     0.11700
H603        H  0.19188906  0.12249870  0.37476743     0.11700
H604        H  0.18512399  0.14668546  0.36352853     0.11700
H605        H  0.21177377  0.13889393  0.31746598     0.11800
H606        H  0.21856904  0.11473611  0.32907513     0.10700
C607        C  0.20480565  0.98870311  0.36473072    -0.03100
C608        C  0.19396566  0.98062034  0.35583261    -0.08900
C609        C  0.19341096  0.96534506  0.35724385    -0.16600
C610        C  0.20371935  0.95788765  0.36751227     0.25600
C611        C  0.21406415  0.96590738  0.37727074    -0.18200
C612        C  0.21458491  0.98130601  0.37592380    -0.07200
C613        C  0.20432474  0.94206398  0.36642164    -0.13600
C614        C  0.20393501  0.92908610  0.36305915    -0.13300
C615        C  0.20226567  0.91410995  0.35711670     0.25500
C616        C  0.19433982  0.90399367  0.36717930    -0.18700
C617        C  0.19138786  0.88992984  0.36060406    -0.07200
C618        C  0.19627951  0.88576589  0.34379550    -0.03300
C619        C  0.20462993  0.89587153  0.33399426    -0.08600
C620        C  0.20754931  0.90995212  0.34059633    -0.16200
H621        H  0.18637841  0.98609858  0.34705522     0.11900
H622        H  0.18537409  0.95929038  0.34962301     0.11200
H623        H  0.22213777  0.96024361  0.38522218     0.11100
H624        H  0.22319374  0.98729918  0.38265332     0.11700
H625        H  0.19014434  0.90708225  0.37994932     0.11700
H626        H  0.18510871  0.88241413  0.36865108     0.11700
H627        H  0.20852083  0.89311142  0.32100890     0.11800
H628        H  0.21360664  0.91772723  0.33261381     0.10700
C629        C  0.00950738  0.78372480  0.36312791    -0.03100
C630        C  0.01604598  0.79584601  0.37148655    -0.08900
C631        C  0.03139882  0.79740927  0.37157893    -0.16600
C632        C  0.04031686  0.78682338  0.36342987     0.25600
C633        C  0.03386011  0.77428518  0.35607746    -0.18200
C634        C  0.01856780  0.77276002  0.35589118    -0.07200
C635        C  0.05584000  0.78944444  0.36090047    -0.13600
C636        C  0.06855195  0.79173828  0.35713421    -0.13300
C637        C  0.08339635  0.79481916  0.35145990     0.25500
C638        C  0.09232085  0.80429640  0.36121035    -0.18700
C639        C  0.10641860  0.80792014  0.35525746    -0.07200
C640        C  0.11185346  0.80218063  0.33934786    -0.03300
C641        C  0.10288123  0.79241689  0.32980066    -0.08600
C642        C  0.08876213  0.78879477  0.33580990    -0.16200
H643        H  0.00929231  0.80459015  0.37680273     0.11900
H644        H  0.03625437  0.80721402  0.37721691     0.11200
H645        H  0.04060321  0.76604210  0.34968787     0.11100
H646        H  0.01375652  0.76338929  0.34924209     0.11700
H647        H  0.08832102  0.80903908  0.37333812     0.11700
H648        H  0.11294542  0.81532812  0.36314604     0.11700
H649        H  0.10660855  0.78775637  0.31753741     0.11800
H650        H  0.08194710  0.78145568  0.32810930     0.10700
C651        C  0.95489628  0.79184604  0.36358431    -0.03100
C652        C  0.94696533  0.80218211  0.35370325    -0.08900
C653        C  0.93170012  0.80317558  0.35523433    -0.16600
C654        C  0.92410121  0.79378594  0.36658345     0.25600
C655        C  0.93198494  0.78389148  0.37710453    -0.18200
C656        C  0.94735809  0.78295481  0.37565613    -0.07200
C657        C  0.90822915  0.79362202  0.36609880    -0.13600
C658        C  0.89512740  0.79398860  0.36347584    -0.13300
C659        C  0.87992762  0.79527153  0.35824122     0.25500
C660        C  0.87537831  0.78957781  0.34207116    -0.18700
C661        C  0.86111501  0.79222374  0.33593619    -0.07200
C662        C  0.85120955  0.80071186  0.34585587    -0.03300
C663        C  0.85569867  0.80588023  0.36242231    -0.08600
C664        C  0.86995919  0.80320117  0.36853801    -0.16200
H665        H  0.95254994  0.80902867  0.34417784     0.11900
H666        H  0.92575861  0.81083555  0.34698278     0.11200
H667        H  0.92621857  0.77649984  0.38586134     0.11100
H668        H  0.95322527  0.77470292  0.38311734     0.11700
H669        H  0.88300986  0.78346913  0.33394041     0.11700
H670        H  0.85808504  0.78809596  0.32314200     0.11700
H671        H  0.84831351  0.81224092  0.37056277     0.11800
H672        H  0.87332573  0.80766513  0.38107402     0.10700
C673        C  0.76028258  0.79161830  0.24831977    -0.03100
C674        C  0.74627199  0.79626528  0.24270268    -0.08900
C675        C  0.73885819  0.78880336  0.22930112    -0.16600
C676        C  0.74526631  0.77655496  0.22121841     0.25600
C677        C  0.75917997  0.77178851  0.22670416    -0.18200
C678        C  0.76663011  0.77923875  0.24013863    -0.07200
C679        C  0.73753951  0.76897756  0.20729556    -0.13600
C680        C  0.73087776  0.76284954  0.19565163    -0.13300
C681        C  0.72289073  0.75555532  0.18171650     0.25500
C682        C  0.72635789  0.74106057  0.17707597    -0.18700
C683        C  0.71874766  0.73399837  0.16350099    -0.07200
C684        C  0.70747336  0.74129859  0.15430094    -0.03300
C685        C  0.70400348  0.75585874  0.15914701    -0.08600
C686        C  0.71166464  0.76291619  0.17271109    -0.16200
H687        H  0.74091425  0.80562713  0.24868044     0.11900
H688        H  0.72809453  0.79260993  0.22523798     0.11200
H689        H  0.76429528  0.76232892  0.22057229     0.11100
H690        H  0.77738928  0.77532462  0.24397956     0.11700
H691        H  0.73497780  0.73519871  0.18394276     0.11700
H692        H  0.72167999  0.72277760  0.16033148     0.11700
H693        H  0.69549043  0.76190124  0.15236307     0.11800
H694        H  0.70885385  0.77414036  0.17613223     0.10700
C695        C  0.61366297  0.73367394  0.05991256    -0.03100
C696        C  0.60491124  0.74394914  0.06896402    -0.08900
C697        C  0.59088670  0.74764240  0.06278198    -0.16600
C698        C  0.58541160  0.74118432  0.04744910     0.25600
C699        C  0.59408348  0.73112245  0.03822204    -0.18200
C700        C  0.60809302  0.72742299  0.04435175    -0.07200
C701        C  0.57060960  0.74427973  0.04177152    -0.13600
C702        C  0.55779075  0.74636761  0.03849646    -0.13300
C703        C  0.54208611  0.74823272  0.03723585     0.25500
C704        C  0.53347449  0.73794075  0.02816768    -0.18700
C705        C  0.51812190  0.73815158  0.02984286    -0.07200
C706        C  0.51129905  0.74861965  0.04068542    -0.03300
C707        C  0.51996328  0.75943022  0.04886132    -0.08600
C708        C  0.53525267  0.75925883  0.04710612    -0.16200
H709        H  0.60873750  0.74896568  0.08097827     0.11900
H710        H  0.58422050  0.75537638  0.07011628     0.11200
H711        H  0.58995191  0.72599040  0.02638919     0.11100
H712        H  0.61445671  0.71958381  0.03686621     0.11700
H713        H  0.53864974  0.72926655  0.02062399     0.11700
H714        H  0.51171254  0.72952543  0.02371565     0.11700
H715        H  0.51493560  0.76754681  0.05736450     0.11800
H716        H  0.54178277  0.76722266  0.05426425     0.10700
C717        C  0.69599874  0.64821395  0.05967889    -0.03100
C718        C  0.70513419  0.63873110  0.06936258    -0.08900
C719        C  0.70823623  0.62452073  0.06324733    -0.16600
C720        C  0.70233068  0.61958815  0.04733712     0.25600
C721        C  0.69344041  0.62901425  0.03748472    -0.18200
C722        C  0.69031485  0.64319929  0.04356518    -0.07200
C723        C  0.70462219  0.60458889  0.04168861    -0.13600
C724        C  0.70569197  0.59164442  0.03827102    -0.13300
C725        C  0.70595628  0.57580683  0.03680797     0.25500
C726        C  0.69558032  0.56763115  0.04619639    -0.18700
C727        C  0.69685424  0.55236976  0.04728736    -0.07200
C728        C  0.70846029  0.54500838  0.03888745    -0.03300
C729        C  0.71834888  0.55309697  0.02852839    -0.08600
C730        C  0.71713096  0.56848753  0.02755101    -0.16200
H731        H  0.70964313  0.64212853  0.08183658     0.11900
H732        H  0.71504007  0.61729068  0.07108561     0.11200
H733        H  0.68873911  0.62533076  0.02520138     0.11100
H734        H  0.68338017  0.65016870  0.03560847     0.11700
H735        H  0.68690144  0.57312341  0.05341607     0.11700
H736        H  0.68918670  0.54634108  0.05544653     0.11700
H737        H  0.72751418  0.54764609  0.02219023     0.11800
H738        H  0.72526350  0.57469603  0.02027423     0.10700
C739        C  0.25692259  0.74309691  0.15130643    -0.03100
C740        C  0.24390620  0.73740143  0.15872566    -0.08900
C741        C  0.23628000  0.74522326  0.17170346    -0.16600
C742        C  0.24148474  0.75887988  0.17753195     0.25600
C743        C  0.25440123  0.76464754  0.17026144    -0.18200
C744        C  0.26205004  0.75685256  0.15728486    -0.07200
C745        C  0.23362213  0.76693596  0.19098395    -0.13600
C746        C  0.22708616  0.77362011  0.20230824    -0.13300
C747        C  0.21928690  0.78146161  0.21599680     0.25500
C748        C  0.22475351  0.79479539  0.22252255    -0.18700
C749        C  0.21734011  0.80223105  0.23600990    -0.07200
C750        C  0.20429173  0.79645206  0.24326373    -0.03300
C751        C  0.19882796  0.78310165  0.23644048    -0.08600
C752        C  0.20626140  0.77569508  0.22297454    -0.16200
H753        H  0.23956622  0.72687871  0.15460707     0.11900
H754        H  0.22631425  0.74059367  0.17720740     0.11200
H755        H  0.25857969  0.77519632  0.17462321     0.11100
H756        H  0.27195389  0.76169049  0.15196297     0.11700
H757        H  0.23480629  0.79942504  0.21724730     0.11700
H758        H  0.22191730  0.81246711  0.24074925     0.11700
H759        H  0.18886884  0.77822065  0.24155031     0.11800
H760        H  0.20187232  0.76540078  0.21807407     0.10700
C761        C  0.26658156  0.64759982  0.06011812    -0.03100
C762        C  0.27218062  0.64222668  0.04412679    -0.08900
C763        C  0.26879958  0.62800200  0.03837363    -0.16600
C764        C  0.25971888  0.61889999  0.04843115     0.25600
C765        C  0.25374133  0.62426671  0.06411658    -0.18200
C766        C  0.25709919  0.63852148  0.06990100    -0.07200
C767        C  0.25714496  0.60384528  0.04313281    -0.13600
C768        C  0.25538395  0.59094004  0.03987459    -0.13300
C769        C  0.25342718  0.57521038  0.03838316     0.25500
C770        C  0.24237797  0.56839380  0.04820937    -0.18700
C771        C  0.24185765  0.55308231  0.04946308    -0.07200
C772        C  0.25235575  0.54431516  0.04087105    -0.03300
C773        C  0.26284718  0.55112064  0.03004257    -0.08600
C774        C  0.26339989  0.56653408  0.02884505    -0.16200
H775        H  0.27931977  0.64892418  0.03607478     0.11900
H776        H  0.27348414  0.62401861  0.02620824     0.11200
H777        H  0.24671665  0.61732506  0.07206301     0.11100
H778        H  0.25260353  0.64222933  0.08226513     0.11700
H779        H  0.23462802  0.57493347  0.05568325     0.11700
H780        H  0.23373461  0.54808006  0.05797182     0.11700
H781        H  0.27121922  0.54461705  0.02356115     0.11800
H782        H  0.27206019  0.57167266  0.02125366     0.10700
C783        C  0.35301644  0.72962549  0.06143712    -0.03100
C784        C  0.35770883  0.72500092  0.04473272    -0.08900
C785        C  0.37224415  0.72720001  0.03930787    -0.16600
C786        C  0.38233987  0.73405758  0.05046322     0.25600
C787        C  0.37769224  0.73906317  0.06693927    -0.18200
C788        C  0.36310955  0.73693185  0.07237128    -0.07200
C789        C  0.39761090  0.73521139  0.04541067    -0.13600
C790        C  0.41063012  0.73553154  0.04220665    -0.13300
C791        C  0.42645049  0.73541140  0.04053991     0.25500
C792        C  0.43382511  0.74632695  0.03095407    -0.18700
C793        C  0.44922063  0.74734321  0.03166719    -0.07200
C794        C  0.45729018  0.73751381  0.04209481    -0.03300
C795        C  0.44987758  0.72611123  0.05081569    -0.08600
C796        C  0.43457511  0.72503565  0.04998806    -0.16200
H797        H  0.35019411  0.71952428  0.03588080     0.11900
H798        H  0.37567442  0.72328304  0.02653569     0.11200
H799        H  0.38541713  0.74433494  0.07573953     0.11100
H800        H  0.35989779  0.74054993  0.08533023     0.11700
H801        H  0.42765839  0.75445231  0.02363213     0.11700
H802        H  0.45470387  0.75636659  0.02509613     0.11700
H803        H  0.45589990  0.71848777  0.05902403     0.11800
H804        H  0.42903194  0.71654631  0.05745384     0.10700
C805        C  0.20491869  0.23591748  0.24249134    -0.03100
C806        C  0.19936711  0.24905286  0.23525440    -0.08900
C807        C  0.20735568  0.25681664  0.22254921    -0.16600
C808        C  0.22103554  0.25163321  0.21678044     0.25600
C809        C  0.22664110  0.23855655  0.22381037    -0.18200
C810        C  0.21867286  0.23076381  0.23651822    -0.07200
C811        C  0.22919347  0.25966111  0.20354697    -0.13600
C812        C  0.23574500  0.26640865  0.19228831    -0.13300
C813        C  0.24333615  0.27441193  0.17856278     0.25500
C814        C  0.25729114  0.26991042  0.17293646    -0.18700
C815        C  0.26452536  0.27746392  0.15943924    -0.07200
C816        C  0.25794329  0.28970965  0.15125026    -0.03300
C817        C  0.24392292  0.29419140  0.15708982    -0.08600
C818        C  0.23670847  0.28660892  0.17060146    -0.16200
H819        H  0.18885000  0.25341166  0.23935787     0.11900
H820        H  0.20283541  0.26688725  0.21721187     0.11200
H821        H  0.23719238  0.23436837  0.21947650     0.11100
H822        H  0.22340008  0.22075578  0.24167946     0.11700
H823        H  0.26258258  0.26050263  0.17894084     0.11700
H824        H  0.27527808  0.27362411  0.15547796     0.11700
H825        H  0.23842891  0.30350795  0.15121304     0.11800
H826        H  0.22590827  0.29023465  0.17478261     0.10700
C827        C  0.35545367  0.30219912  0.06396078    -0.03100
C828        C  0.36382958  0.29163712  0.07302589    -0.08900
C829        C  0.37804442  0.28795724  0.06733996    -0.16600
C830        C  0.38407425  0.29468332  0.05245316     0.25600
C831        C  0.37566941  0.30489679  0.04310411    -0.18200
C832        C  0.36149908  0.30861100  0.04877122    -0.07200
C833        C  0.39917592  0.29186924  0.04744160    -0.13600
C834        C  0.41216024  0.29039096  0.04436814    -0.13300
C835        C  0.42801124  0.28961285  0.04284263     0.25500
C836        C  0.43662879  0.29915503  0.05292514    -0.18700
C837        C  0.45190726  0.29761044  0.05325437    -0.07200
C838        C  0.45886644  0.28660510  0.04334631    -0.03300
C839        C  0.45030570  0.27745675  0.03256885    -0.08600
C840        C  0.43490530  0.27892480  0.03236861    -0.16200
H841        H  0.35959501  0.28649716  0.08476930     0.11900
H842        H  0.38444565  0.28008755  0.07477321     0.11200
H843        H  0.38017056  0.31021124  0.03158811     0.11100
H844        H  0.35536240  0.31660811  0.04126501     0.11700
H845        H  0.43148890  0.30744773  0.06109457     0.11700
H846        H  0.45829743  0.30464803  0.06182277     0.11700
H847        H  0.45544065  0.26870668  0.02511851     0.11800
H848        H  0.42837366  0.27142079  0.02455157     0.10700
C849        C  0.26030106  0.48953107  0.04239114    -0.03100
C850        C  0.27097493  0.48135732  0.05146130    -0.08900
C851        C  0.27116542  0.46603012  0.05048825    -0.16600
C852        C  0.26064754  0.45856642  0.04049977     0.25600
C853        C  0.25030965  0.46662943  0.03078852    -0.18200
C854        C  0.25015272  0.48207769  0.03169707    -0.07200
C855        C  0.26011592  0.44269448  0.04138815    -0.13600
C856        C  0.26074881  0.42960303  0.04409999    -0.13300
C857        C  0.26290677  0.41437587  0.04889092     0.25500
C858        C  0.25527306  0.40827830  0.06310278    -0.18700
C859        C  0.25854801  0.39400834  0.06889913    -0.07200
C860        C  0.26960106  0.38567340  0.06062221    -0.03300
C861        C  0.27686395  0.39176135  0.04601254    -0.08600
C862        C  0.27356303  0.40597990  0.04024348    -0.16200
H863        H  0.27882353  0.48684531  0.05991251     0.11900
H864        H  0.27920441  0.45996667  0.05807722     0.11200
H865        H  0.24206282  0.46098344  0.02305844     0.11100
H866        H  0.24162381  0.48811550  0.02490046     0.11700
H867        H  0.24706220  0.41469419  0.07000077     0.11700
H868        H  0.25275669  0.38972600  0.08018298     0.11700
H869        H  0.28525990  0.38564582  0.03909661     0.11800
H870        H  0.27958804  0.41055191  0.02927299     0.10700
C871        C  0.70785610  0.29481464  0.15577969    -0.03100
C872        C  0.70349046  0.28063834  0.16115390    -0.08900
C873        C  0.71142552  0.27302575  0.17400598    -0.16600
C874        C  0.72384934  0.27941766  0.18173780     0.25600
C875        C  0.72820983  0.29354446  0.17662713    -0.18200
C876        C  0.72030009  0.30118146  0.16378637    -0.07200
C877        C  0.73214513  0.27145259  0.19481801    -0.13600
C878        C  0.73893422  0.26461889  0.20574557    -0.13300
C879        C  0.74665298  0.25618580  0.21891403     0.25500
C880        C  0.76044725  0.26073783  0.22503188    -0.18700
C881        C  0.76773925  0.25265383  0.23803526    -0.07200
C882        C  0.76134540  0.23984958  0.24517255    -0.03300
C883        C  0.74752795  0.23532191  0.23876119    -0.08600
C884        C  0.74027147  0.24341962  0.22578072    -0.16200
H885        H  0.69403214  0.27530545  0.15537132     0.11900
H886        H  0.70790296  0.26210525  0.17784535     0.11200
H887        H  0.73777160  0.29865590  0.18252696     0.11100
H888        H  0.72400942  0.31206698  0.16018536     0.11700
H889        H  0.76554821  0.27057910  0.21981474     0.11700
H890        H  0.77835921  0.25650614  0.24246502     0.11700
H891        H  0.74217552  0.22559513  0.24383043     0.11800
H892        H  0.72961134  0.23975078  0.22117015     0.10700
C893        C  0.61468392  0.30422658  0.06142223    -0.03100
C894        C  0.60623716  0.31413308  0.05143833    -0.08900
C895        C  0.59234377  0.31010823  0.04519804    -0.16600
C896        C  0.58669423  0.29610401  0.04872168     0.25600
C897        C  0.59505461  0.28611521  0.05852137    -0.18200
C898        C  0.60894436  0.29014760  0.06486055    -0.07200
C899        C  0.57205504  0.29226196  0.04300608    -0.13600
C900        C  0.55945972  0.28926300  0.03942836    -0.13300
C901        C  0.54407430  0.28572400  0.03741658     0.25500
C902        C  0.53417041  0.29615943  0.03078471    -0.18700
C903        C  0.51896764  0.29362811  0.03175717    -0.07200
C904        C  0.51357925  0.28069869  0.03953539    -0.03300
C905        C  0.52359748  0.26993155  0.04516374    -0.08600
C906        C  0.53873975  0.27240457  0.04404696    -0.16200
H907        H  0.61020277  0.32511683  0.04870061     0.11900
H908        H  0.58593691  0.31799031  0.03778234     0.11200
H909        H  0.59077689  0.27525780  0.06140993     0.11100
H910        H  0.61518969  0.28222619  0.07238006     0.11700
H911        H  0.53815450  0.30656046  0.02573614     0.11700
H912        H  0.51145556  0.30220835  0.02766800     0.11700
H913        H  0.51967236  0.25994991  0.05134445     0.11800
H914        H  0.54625795  0.26426852  0.04927349     0.10700
C915        C  0.71703236  0.49044877  0.03911399    -0.03100
C916        C  0.72726310  0.48139303  0.04770691    -0.08900
C917        C  0.72591536  0.46610299  0.04708209    -0.16600
C918        C  0.71430307  0.45960699  0.03788866     0.25600
C919        C  0.70456071  0.46851352  0.02836287    -0.18200
C920        C  0.70594086  0.48389338  0.02892786    -0.07200
C921        C  0.71163246  0.44404258  0.03995780    -0.13600
C922        C  0.70944112  0.43129974  0.04365603    -0.13300
C923        C  0.70656851  0.41645413  0.04946782     0.25500
C924        C  0.71196923  0.41157945  0.06564471    -0.18700
C925        C  0.70845075  0.39749034  0.07180283    -0.07200
C926        C  0.69939882  0.38807615  0.06188703    -0.03300
C927        C  0.69434418  0.39297659  0.04544350    -0.08600
C928        C  0.69787782  0.40704339  0.03932556    -0.16200
H929        H  0.73583475  0.48619715  0.05573872     0.11900
H930        H  0.73349612  0.45937442  0.05454017     0.11200
H931        H  0.69546882  0.46362558  0.02126889     0.11100
H932        H  0.69774006  0.49062537  0.02249481     0.11700
H933        H  0.71870020  0.41876764  0.07364700     0.11700
H934        H  0.71253948  0.39415848  0.08449868     0.11700
H935        H  0.68754463  0.38602907  0.03727584     0.11800
H936        H  0.69365002  0.41064936  0.02677670     0.10700
C937        C  0.98419720  0.79608846  0.51556053    -0.03100
C938        C  0.99201390  0.78515308  0.50643009    -0.08900
C939        C  0.99199099  0.78482763  0.48808191    -0.16600
C940        C  0.98412754  0.79540304  0.47856981     0.25600
C941        C  0.97637515  0.80638357  0.48757785    -0.18200
C942        C  0.97642783  0.80674100  0.50593083    -0.07200
C943        C  0.98387364  0.79484473  0.45962012    -0.13600
C944        C  0.98364510  0.79404713  0.44379009    -0.13300
C945        C  0.98341652  0.79263018  0.42490240     0.25500
C946        C  0.97550507  0.80264330  0.41460058    -0.18700
C947        C  0.97516309  0.80109034  0.39632534    -0.07200
C948        C  0.98267774  0.78945115  0.38809944    -0.03300
C949        C  0.99062466  0.77949092  0.39853470    -0.08600
C950        C  0.99101085  0.78108432  0.41677014    -0.16200
H951        H  0.99794271  0.77672439  0.51351466     0.11900
H952        H  0.99801065  0.77624676  0.48131628     0.11200
H953        H  0.97026792  0.81465758  0.48042032     0.11100
H954        H  0.97047907  0.81539162  0.51262905     0.11700
H955        H  0.96960067  0.81165052  0.42068877     0.11700
H956        H  0.96913308  0.80903376  0.38859968     0.11700
H957        H  0.99637635  0.77034594  0.39256164     0.11800
H958        H  0.99715105  0.77323478  0.42454034     0.10700
C959        C  0.01136240  0.79232225  0.54084553    -0.03100
C960        C  0.01867742  0.80270554  0.53036309    -0.08900
C961        C  0.03412390  0.80299183  0.52981778    -0.16600
C962        C  0.04233239  0.79285238  0.53965336     0.25600
C963        C  0.03502941  0.78195743  0.54922283    -0.18200
C964        C  0.01968041  0.78170976  0.54983983    -0.07200
C965        C  0.05807089  0.79442442  0.54156905    -0.13600
C966        C  0.07097045  0.79586033  0.54505390    -0.13300
C967        C  0.08603311  0.79793216  0.55060452     0.25500
C968        C  0.09050504  0.79330944  0.56728053    -0.18700
C969        C  0.10488826  0.79598319  0.57307953    -0.07200
C970        C  0.11502772  0.80339858  0.56229846    -0.03300
C971        C  0.11047801  0.80776807  0.54543577    -0.08600
C972        C  0.09610934  0.80506613  0.53966516    -0.16200
H973        H  0.01251639  0.81117298  0.52361432     0.11900
H974        H  0.03964187  0.81154472  0.52243999     0.11200
H975        H  0.04120248  0.77408959  0.55693545     0.11100
H976        H  0.01427803  0.77368357  0.55812532     0.11700
H977        H  0.08280241  0.78782080  0.57591877     0.11700
H978        H  0.10792269  0.79252943  0.58614345     0.11700
H979        H  0.11797359  0.81334041  0.53665710     0.11800
H980        H  0.09281681  0.80870263  0.52673760     0.10700
C981        C  0.95657946  0.80010646  0.53993116    -0.03100
C982        C  0.94937989  0.78890938  0.53056426    -0.08900
C983        C  0.93393244  0.78850436  0.52992043    -0.16600
C984        C  0.92562015  0.79934265  0.53853107     0.25600
C985        C  0.93283107  0.81098517  0.54690917    -0.18200
C986        C  0.94817324  0.81133567  0.54766041    -0.07200
C987        C  0.90982661  0.79807107  0.54026799    -0.13600
C988        C  0.89680544  0.79790250  0.54357245    -0.13300
C989        C  0.88155328  0.79894318  0.54885001     0.25500
C990        C  0.87168886  0.80730534  0.53894126    -0.18700
C991        C  0.85731115  0.80961432  0.54490034    -0.07200
C992        C  0.85252917  0.80364842  0.56096151    -0.03300
C993        C  0.86236543  0.79481146  0.57054487    -0.08600
C994        C  0.87677882  0.79252842  0.56455212    -0.16200
H995        H  0.95563485  0.77997970  0.52482992     0.11900
H996        H  0.92849664  0.77940218  0.52343097     0.11200
H997        H  0.92657911  0.81943027  0.55362751     0.11100
H998        H  0.95349739  0.81996993  0.55512206     0.11700
H999        H  0.87520911  0.81234532  0.52678513     0.11700
H1000       H  0.85004282  0.81627520  0.53698475     0.11700
H1001       H  0.85912726  0.79005887  0.58294755     0.11800
H1002       H  0.88431321  0.78607798  0.57240785     0.10700
C1003       C  0.98253659  0.24433448  0.38763088    -0.03100
C1004       C  0.99051142  0.23305287  0.39591369    -0.08900
C1005       C  0.99133568  0.23241609  0.41424866    -0.16600
C1006       C  0.98416476  0.24301592  0.42452950     0.25600
C1007       C  0.97621786  0.25426480  0.41633405    -0.18200
C1008       C  0.97541655  0.25492366  0.39805026    -0.07200
C1009       C  0.98477202  0.24234963  0.44345293    -0.13600
C1010       C  0.98490387  0.24210866  0.45930417    -0.13300
C1011       C  0.98482012  0.24209028  0.47825832     0.25500
C1012       C  0.97715365  0.25301316  0.48746768    -0.18700
C1013       C  0.97716598  0.25310065  0.50581226    -0.07200
C1014       C  0.98483745  0.24225506  0.51522976    -0.03300
C1015       C  0.99243059  0.23127478  0.50592088    -0.08600
C1016       C  0.99242354  0.23119880  0.48756410    -0.16200
H1017       H  0.99596146  0.22467222  0.38820483     0.11900
H1018       H  0.99749605  0.22362551  0.42039696     0.11200
H1019       H  0.97063756  0.26255171  0.42408504     0.11100
H1020       H  0.96935494  0.26381242  0.39198987     0.11700
H1021       H  0.97122343  0.26150947  0.48046880     0.11700
H1022       H  0.97133733  0.26174180  0.51267959     0.11700
H1023       H  0.99825095  0.22269503  0.51287781     0.11800
H1024       H  0.99834813  0.22264576  0.48063358     0.10700
C1025       C  0.11599878  0.23257449  0.56092566    -0.03100
C1026       C  0.11144683  0.22774600  0.54423807    -0.08900
C1027       C  0.09722255  0.23067111  0.53816558    -0.16600
C1028       C  0.08729266  0.23851437  0.54860435     0.25600
C1029       C  0.09184642  0.24377224  0.56500014    -0.18200
C1030       C  0.10610302  0.24087586  0.57110430    -0.07200
C1031       C  0.07213914  0.24009494  0.54314563    -0.13600
C1032       C  0.05911162  0.24025881  0.53989288    -0.13300
C1033       C  0.04327917  0.23914041  0.53854231     0.25500
C1034       C  0.03499532  0.24918829  0.52865039    -0.18700
C1035       C  0.01953205  0.24893748  0.52942780    -0.07200
C1036       C  0.01229001  0.23867946  0.54018326    -0.03300
C1037       C  0.02069635  0.22819328  0.54925914    -0.08600
C1038       C  0.03602917  0.22840884  0.54842094    -0.16200
H1039       H  0.11878438  0.22152465  0.53589171     0.11900
H1040       H  0.09386416  0.22650188  0.52548388     0.11200
H1041       H  0.08424826  0.24977964  0.57327887     0.11100
H1042       H  0.10916980  0.24473149  0.58400534     0.11700
H1043       H  0.04046451  0.25758027  0.52096707     0.11700
H1044       H  0.01331188  0.25730713  0.52258493     0.11700
H1045       H  0.01537675  0.22025322  0.55773672     0.11800
H1046       H  0.04225317  0.22057305  0.55612498     0.10700
C1047       C  0.20923338  0.01646774  0.51662270    -0.03100
C1048       C  0.22066474  0.02308446  0.50707022    -0.08900
C1049       C  0.22052363  0.02294901  0.48875011    -0.16600
C1050       C  0.20891963  0.01624246  0.47970078     0.25600
C1051       C  0.19746643  0.00959876  0.48914803    -0.18200
C1052       C  0.19763495  0.00968187  0.50751552    -0.07200
C1053       C  0.20881745  0.01624645  0.46076206    -0.13600
C1054       C  0.20893018  0.01636925  0.44491733    -0.13300
C1055       C  0.20905904  0.01643307  0.42597788     0.25500
C1056       C  0.19799237  0.00911793  0.41663478    -0.18700
C1057       C  0.19814416  0.00903630  0.39829530    -0.07200
C1058       C  0.20941002  0.01622212  0.38902059    -0.03300
C1059       C  0.22045120  0.02360435  0.39847416    -0.08600
C1060       C  0.22026577  0.02372336  0.41682376    -0.16200
H1061       H  0.22976644  0.02824654  0.51384539     0.11900
H1062       H  0.22946886  0.02808903  0.48164069     0.11200
H1063       H  0.18840765  0.00438581  0.48232578     0.11100
H1064       H  0.18867361  0.00460453  0.51463923     0.11700
H1065       H  0.18923418  0.00347395  0.42352848     0.11700
H1066       H  0.18941188  0.00344570  0.39132435     0.11700
H1067       H  0.22931620  0.02910593  0.39163646     0.11800
H1068       H  0.22890794  0.02941893  0.42386388     0.10700
C1069       C  0.19783505  0.14677543  0.56255157    -0.03100
C1070       C  0.19250738  0.14200819  0.54615795    -0.08900
C1071       C  0.19571396  0.12789839  0.53989841    -0.16600
C1072       C  0.20435086  0.11830957  0.54983878     0.25600
C1073       C  0.20999216  0.12303021  0.56597461    -0.18200
C1074       C  0.20679231  0.13715626  0.57228187    -0.07200
C1075       C  0.20692092  0.10343982  0.54388723    -0.13600
C1076       C  0.20885834  0.09065331  0.54017995    -0.13300
C1077       C  0.21117829  0.07502009  0.53823369     0.25500
C1078       C  0.22310999  0.06845755  0.54674765    -0.18700
C1079       C  0.22408721  0.05315615  0.54785020    -0.07200
C1080       C  0.21319535  0.04418017  0.54035210    -0.03300
C1081       C  0.20180160  0.05074847  0.53069962    -0.08600
C1082       C  0.20075798  0.06613608  0.52972285    -0.16200
H1083       H  0.18576160  0.14909435  0.53812344     0.11900
H1084       H  0.19129023  0.12440868  0.52738984     0.11200
H1085       H  0.21667833  0.11570009  0.57382537     0.11100
H1086       H  0.21108990  0.14037533  0.58492786     0.11700
H1087       H  0.23121870  0.07517018  0.55341544     0.11700
H1088       H  0.23290289  0.04831708  0.55545200     0.11700
H1089       H  0.19314165  0.04405368  0.52509029     0.11800
H1090       H  0.19141946  0.07107545  0.52316882     0.10700
C1091       C  0.20553825  0.98947106  0.54200858    -0.03100
C1092       C  0.19550378  0.98114563  0.55189581    -0.08900
C1093       C  0.19520555  0.96584558  0.55054614    -0.16600
C1094       C  0.20497273  0.95857005  0.53935078     0.25600
C1095       C  0.21462220  0.96679405  0.52884813    -0.18200
C1096       C  0.21488458  0.98221369  0.53013963    -0.07200
C1097       C  0.20563602  0.94270904  0.53994461    -0.13600
C1098       C  0.20541022  0.92963298  0.54279130    -0.13300
C1099       C  0.20422274  0.91445704  0.54819740     0.25500
C1100       C  0.20892680  0.91026460  0.56493757    -0.18700
C1101       C  0.20668675  0.89586145  0.57087331    -0.07200
C1102       C  0.19959253  0.88543794  0.56017503    -0.03300
C1103       C  0.19524812  0.88967060  0.54318948    -0.08600
C1104       C  0.19752149  0.90406696  0.53727808    -0.16200
H1105       H  0.18827543  0.98647885  0.56123249     0.11900
H1106       H  0.18772443  0.95964398  0.55877427     0.11200
H1107       H  0.22230740  0.96128596  0.52020276     0.11100
H1108       H  0.22294400  0.98835467  0.52268107     0.11700
H1109       H  0.21403831  0.91822990  0.57357321     0.11700
H1110       H  0.21010206  0.89306749  0.58402664     0.11700
H1111       H  0.18992177  0.88193400  0.53448262     0.11800
H1112       H  0.19378994  0.90715897  0.52431913     0.10700
C1113       C  0.85496701  0.23052745  0.56226111    -0.03100
C1114       C  0.85956552  0.22560721  0.54561575    -0.08900
C1115       C  0.87349962  0.22925949  0.53911699    -0.16600
C1116       C  0.88307105  0.23793118  0.54908443     0.25600
C1117       C  0.87845202  0.24323754  0.56543113    -0.18200
C1118       C  0.86449921  0.23961250  0.57195785    -0.07200
C1119       C  0.89790750  0.24068903  0.54308450    -0.13600
C1120       C  0.91073700  0.24256749  0.53950616    -0.13300
C1121       C  0.92644969  0.24453048  0.53773275     0.25500
C1122       C  0.93332343  0.25604801  0.54673130    -0.18700
C1123       C  0.94865398  0.25664701  0.54779204    -0.07200
C1124       C  0.95737014  0.24580112  0.53975742    -0.03300
C1125       C  0.95049566  0.23476482  0.52979841    -0.08600
C1126       C  0.93507804  0.23410481  0.52884926    -0.16200
H1127       H  0.85248996  0.21879671  0.53761604     0.11900
H1128       H  0.87690239  0.22508478  0.52644930     0.11200
H1129       H  0.88576635  0.24992751  0.57331673     0.11100
H1130       H  0.86138834  0.24358358  0.58480023     0.11700
H1131       H  0.92682376  0.26413525  0.55373271     0.11700
H1132       H  0.95372138  0.26516625  0.55567955     0.11700
H1133       H  0.95697575  0.22612055  0.52380637     0.11800
H1134       H  0.92990344  0.22506009  0.52195413     0.10700
C1135       C  0.75525914  0.01555679  0.51738168    -0.03100
C1136       C  0.74412669  0.00896356  0.50730187    -0.08900
C1137       C  0.74480868  0.00923151  0.48897958    -0.16600
C1138       C  0.75663178  0.01609143  0.48047252     0.25600
C1139       C  0.76777776  0.02266822  0.49044909    -0.18200
C1140       C  0.76710298  0.02239805  0.50878068    -0.07200
C1141       C  0.75726907  0.01637412  0.46154530    -0.13600
C1142       C  0.75730744  0.01635830  0.44569591    -0.13300
C1143       C  0.75642495  0.01584464  0.42678990     0.25500
C1144       C  0.76646690  0.02359853  0.41631596    -0.18700
C1145       C  0.76532132  0.02310357  0.39798404    -0.07200
C1146       C  0.75407380  0.01489268  0.38993042    -0.03300
C1147       C  0.74408346  0.00716995  0.40057377    -0.08600
C1148       C  0.74527915  0.00760419  0.41881547    -0.16200
H1149       H  0.73483723  0.00374912  0.51364613     0.11900
H1150       H  0.73609186  0.00412358  0.48144793     0.11200
H1151       H  0.77699814  0.02798753  0.48406364     0.11100
H1152       H  0.77587531  0.02742018  0.51627651     0.11700
H1153       H  0.77516705  0.03000880  0.42230377     0.11700
H1154       H  0.77326101  0.02901254  0.39010429     0.11700
H1155       H  0.73519509  0.00094133  0.39474199     0.11800
H1156       H  0.73741187  0.00159003  0.42671780     0.10700
C1157       C  0.77064777  0.14606508  0.56187341    -0.03100
C1158       C  0.76076013  0.13706656  0.57118986    -0.08900
C1159       C  0.75767546  0.12275190  0.56540137    -0.16600
C1160       C  0.76434559  0.11726219  0.55018410     0.25600
C1161       C  0.77387896  0.12625548  0.54061155    -0.18200
C1162       C  0.77697843  0.14052996  0.54635578    -0.07200
C1163       C  0.76228073  0.10211499  0.54505446    -0.13600
C1164       C  0.76156745  0.08910187  0.54193533    -0.13300
C1165       C  0.76169677  0.07326248  0.54071589     0.25500
C1166       C  0.77130517  0.06537578  0.55147824    -0.18700
C1167       C  0.77029736  0.05009536  0.55248842    -0.07200
C1168       C  0.75969494  0.04242446  0.54269852    -0.03300
C1169       C  0.75064029  0.05025864  0.53106770    -0.08600
C1170       C  0.75162433  0.06566064  0.53011050    -0.16200
H1171       H  0.75571371  0.14088758  0.58319484     0.11900
H1172       H  0.75034535  0.11585825  0.57300995     0.11200
H1173       H  0.77915412  0.12213772  0.52885922     0.11100
H1174       H  0.78447703  0.14712887  0.53866466     0.11700
H1175       H  0.77914819  0.07109642  0.55972454     0.11700
H1176       H  0.77734373  0.04428680  0.56159674     0.11700
H1177       H  0.74221741  0.04460393  0.52362892     0.11800
H1178       H  0.74410936  0.07165403  0.52173699     0.10700
C1179       C  0.74966037  0.98804063  0.54142830    -0.03100
C1180       C  0.73917943  0.97926027  0.55004231    -0.08900
C1181       C  0.73974045  0.96394679  0.54882780    -0.16600
C1182       C  0.75078074  0.95714086  0.53897143     0.25600
C1183       C  0.76074572  0.96581426  0.52944609    -0.18200
C1184       C  0.76017864  0.98121994  0.53063718    -0.07200
C1185       C  0.75283695  0.94144131  0.54051153    -0.13600
C1186       C  0.75492175  0.92863121  0.54395484    -0.13300
C1187       C  0.75811542  0.91385093  0.54976911     0.25500
C1188       C  0.76776494  0.90496111  0.54019686    -0.18700
C1189       C  0.77186170  0.89113098  0.54658797    -0.07200
C1190       C  0.76640671  0.88593821  0.56273627    -0.03300
C1191       C  0.75640786  0.89481665  0.57205516    -0.08600
C1192       C  0.75233109  0.90867104  0.56562827    -0.16200
H1193       H  0.73102036  0.98425134  0.55851749     0.11900
H1194       H  0.73201998  0.95740313  0.55633187     0.11200
H1195       H  0.76942583  0.96067810  0.52187767     0.11100
H1196       H  0.76857538  0.98769653  0.52417638     0.11700
H1197       H  0.77234706  0.90882578  0.52792961     0.11700
H1198       H  0.77940990  0.88460496  0.53887070     0.11700
H1199       H  0.75199181  0.89125975  0.58451186     0.11800
H1200       H  0.74490200  0.91547494  0.57322408     0.10700
C1201       C  0.71331221  0.51620504  0.88685002    -0.03100
C1202       C  0.72409563  0.50904331  0.89690624    -0.08900
C1203       C  0.72337892  0.50918583  0.91519707    -0.16600
C1204       C  0.71189973  0.51653798  0.92373569     0.25600
C1205       C  0.70106399  0.52367782  0.91382311    -0.18200
C1206       C  0.70175227  0.52350231  0.89547890    -0.07200
C1207       C  0.71143631  0.51687303  0.94263990    -0.13600
C1208       C  0.71153470  0.51707207  0.95846945    -0.13300
C1209       C  0.71200166  0.51726425  0.97737595     0.25500
C1210       C  0.70122103  0.52482977  0.98691680    -0.18700
C1211       C  0.70168390  0.52501148  0.00524694    -0.07200
C1212       C  0.71297385  0.51766961  0.01427958    -0.03300
C1213       C  0.72377241  0.51012467  0.00461513    -0.08600
C1214       C  0.72327909  0.50991160  0.98629210    -0.16200
H1215       H  0.73318093  0.50347827  0.89056297     0.11900
H1216       H  0.73184738  0.50364732  0.92268448     0.11200
H1217       H  0.69210150  0.52938178  0.92026469     0.11100
H1218       H  0.69320649  0.52892494  0.88802881     0.11700
H1219       H  0.69242440  0.53054189  0.98019174     0.11700
H1220       H  0.69312858  0.53072439  0.01238913     0.11700
H1221       H  0.73265244  0.50451007  0.01127704     0.11800
H1222       H  0.73171259  0.50404782  0.97908250     0.10700
C1223       C  0.48342338  0.29115802  0.88952666    -0.03100
C1224       C  0.47582747  0.30201323  0.89906082    -0.08900
C1225       C  0.47595744  0.30192165  0.91741915    -0.16600
C1226       C  0.48376335  0.29104007  0.92649965     0.25600
C1227       C  0.49142785  0.28025402  0.91707732    -0.18200
C1228       C  0.49122972  0.28028584  0.89874378    -0.07200
C1229       C  0.48383941  0.29079862  0.94544266    -0.13600
C1230       C  0.48405918  0.29007280  0.96126541    -0.13300
C1231       C  0.48455155  0.28849958  0.98010650     0.25500
C1232       C  0.49221879  0.27670682  0.98756586    -0.18700
C1233       C  0.49263970  0.27498750  0.00576174    -0.07200
C1234       C  0.48537361  0.28501339  0.01680322    -0.03300
C1235       C  0.47769906  0.29684667  0.00928141    -0.08600
C1236       C  0.47730943  0.29858692  0.99103104    -0.16200
H1237       H  0.46989129  0.31061657  0.89229017     0.11900
H1238       H  0.46999275  0.31034691  0.92452162     0.11200
H1239       H  0.49748385  0.27174861  0.92390713     0.11100
H1240       H  0.49703240  0.27171137  0.89173067     0.11700
H1241       H  0.49783613  0.26879832  0.97930764     0.11700
H1242       H  0.49851540  0.26572383  0.01126789     0.11700
H1243       H  0.47216527  0.30479842  0.01753408     0.11800
H1244       H  0.47135935  0.30777964  0.98544896     0.10700
C1245       C  0.25583156  0.51718807  0.88925410    -0.03100
C1246       C  0.26788164  0.51109322  0.89820118    -0.08900
C1247       C  0.26830281  0.51111878  0.91654303    -0.16600
C1248       C  0.25666221  0.51720099  0.92617663     0.25600
C1249       C  0.24463142  0.52331811  0.91730915    -0.18200
C1250       C  0.24422890  0.52333585  0.89896902    -0.07200
C1251       C  0.25698077  0.51706553  0.94511918    -0.13600
C1252       C  0.25701282  0.51691688  0.96096895    -0.13300
C1253       C  0.25675342  0.51675587  0.97991423     0.25500
C1254       C  0.24564216  0.52423325  0.98900991    -0.18700
C1255       C  0.24533613  0.52408782  0.00734608    -0.07200
C1256       C  0.25618102  0.51651645  0.01687866    -0.03300
C1257       C  0.26726689  0.50897725  0.00767725    -0.08600
C1258       C  0.26754110  0.50908922  0.98932225    -0.16200
H1259       H  0.27699132  0.50641433  0.89095321     0.11900
H1260       H  0.27768780  0.50637213  0.92320496     0.11200
H1261       H  0.23553661  0.52803027  0.92457282     0.11100
H1262       H  0.23480254  0.52799394  0.89232241     0.11700
H1263       H  0.23719784  0.53016782  0.98192728     0.11700
H1264       H  0.23659821  0.52984498  0.01412190     0.11700
H1265       H  0.27583803  0.50321148  0.01471264     0.11800
H1266       H  0.27620871  0.50326216  0.98247602     0.10700
C1267       C  0.48239669  0.74686629  0.88963211    -0.03100
C1268       C  0.48962333  0.75730217  0.90015543    -0.08900
C1269       C  0.48986437  0.75578100  0.91837935    -0.16600
C1270       C  0.48288071  0.74380780  0.92637516     0.25600
C1271       C  0.47573107  0.73328685  0.91597871    -0.18200
C1272       C  0.47549510  0.73480016  0.89770766    -0.07200
C1273       C  0.48292334  0.74253545  0.94523386    -0.13600
C1274       C  0.48310399  0.74212160  0.96105809    -0.13300
C1275       C  0.48346268  0.74228172  0.97997089     0.25500
C1276       C  0.47705746  0.73082209  0.98959044    -0.18700
C1277       C  0.47729697  0.73112868  0.00793247    -0.07200
C1278       C  0.48392484  0.74291716  0.01687266    -0.03300
C1279       C  0.49037172  0.75434199  0.00713494    -0.08600
C1280       C  0.49014564  0.75402106  0.98881590    -0.16200
H1281       H  0.49490687  0.76674943  0.89424681     0.11900
H1282       H  0.49540970  0.76401256  0.92624718     0.11200
H1283       H  0.47031464  0.72394770  0.92198746     0.11100
H1284       H  0.47002706  0.72652236  0.88986030     0.11700
H1285       H  0.47188132  0.72165914  0.98292077     0.11700
H1286       H  0.47242567  0.72212107  0.01516406     0.11700
H1287       H  0.49543549  0.76358616  0.01374546     0.11800
H1288       H  0.49511941  0.76296866  0.98154972     0.10700
C1289       C  0.75854078  0.79088163  0.65455366    -0.03100
C1290       C  0.74382081  0.79441182  0.65853503    -0.08900
C1291       C  0.73613126  0.78670390  0.67151445    -0.16600
C1292       C  0.74298256  0.77533636  0.68079287     0.25600
C1293       C  0.75759475  0.77166638  0.67688926    -0.18200
C1294       C  0.76530949  0.77934590  0.66386549    -0.07200
C1295       C  0.73501447  0.76753162  0.69433098    -0.13600
C1296       C  0.72821213  0.76114442  0.70565017    -0.13300
C1297       C  0.72005113  0.75353943  0.71918797     0.25500
C1298       C  0.72393559  0.73920503  0.72402642    -0.18700
C1299       C  0.71611044  0.73184383  0.73719293    -0.07200
C1300       C  0.70422081  0.73869385  0.74580508    -0.03300
C1301       C  0.70036661  0.75310632  0.74076261    -0.08600
C1302       C  0.70821788  0.76044423  0.72759176    -0.16200
H1303       H  0.73814456  0.80307227  0.65157349     0.11900
H1304       H  0.72482246  0.78964163  0.67433041     0.11200
H1305       H  0.76305385  0.76289871  0.68395677     0.11100
H1306       H  0.77661705  0.77633449  0.66127198     0.11700
H1307       H  0.73304466  0.73370050  0.71762803     0.11700
H1308       H  0.71941982  0.72077532  0.74054316     0.11700
H1309       H  0.69135827  0.75882676  0.74702597     0.11800
H1310       H  0.70507060  0.77153462  0.72399906     0.10700
C1311       C  0.69073201  0.64470962  0.83866641    -0.03100
C1312       C  0.68338531  0.63896509  0.85342605    -0.08900
C1313       C  0.68698263  0.62507411  0.85999756    -0.16600
C1314       C  0.69802792  0.61672394  0.85202219     0.25600
C1315       C  0.70563579  0.62244282  0.83759951    -0.18200
C1316       C  0.70205177  0.63634459  0.83098232    -0.07200
C1317       C  0.70090268  0.60192954  0.85785829    -0.13600
C1318       C  0.70274476  0.58909129  0.86121694    -0.13300
C1319       C  0.70422883  0.57336100  0.86268497     0.25500
C1320       C  0.71602137  0.56701933  0.87182425    -0.18700
C1321       C  0.71828968  0.55175358  0.87116258    -0.07200
C1322       C  0.70882505  0.54283132  0.86124092    -0.03300
C1323       C  0.69673094  0.54921169  0.85273527    -0.08600
C1324       C  0.69441109  0.56435748  0.85351727    -0.16200
H1325       H  0.67474052  0.64507962  0.85987936     0.11900
H1326       H  0.68097342  0.62075122  0.87112334     0.11200
H1327       H  0.71414744  0.61602670  0.83123798     0.11100
H1328       H  0.70792426  0.64033289  0.81961247     0.11700
H1329       H  0.72376149  0.57390375  0.87884629     0.11700
H1330       H  0.72784966  0.54704220  0.87749241     0.11700
H1331       H  0.68944386  0.54250846  0.84482690     0.11800
H1332       H  0.68531086  0.56911987  0.84632118     0.10700
C1333       C  0.60981410  0.73269612  0.83830425    -0.03100
C1334       C  0.60430984  0.72705980  0.85418186    -0.08900
C1335       C  0.59080002  0.73184236  0.86080496    -0.16600
C1336       C  0.58256994  0.74233138  0.85170371     0.25600
C1337       C  0.58807101  0.74825308  0.83607284    -0.18200
C1338       C  0.60164217  0.74351638  0.82943954    -0.07200
C1339       C  0.56812407  0.74630836  0.85789343    -0.13600
C1340       C  0.55560203  0.74881788  0.86223065    -0.13300
C1341       C  0.54014225  0.75109904  0.86542095     0.25500
C1342       C  0.53330799  0.76375909  0.85894607    -0.18700
C1343       C  0.51798066  0.76479211  0.85885821    -0.07200
C1344       C  0.50931106  0.75321247  0.86533252    -0.03300
C1345       C  0.51621536  0.74100950  0.87302522    -0.08600
C1346       C  0.53159589  0.73993032  0.87298801    -0.16200
H1347       H  0.61037958  0.71888216  0.86149817     0.11900
H1348       H  0.58665700  0.72716308  0.87288958     0.11200
H1349       H  0.58174825  0.75632063  0.82884583     0.11100
H1350       H  0.60550849  0.74802531  0.81715594     0.11700
H1351       H  0.53977614  0.77244004  0.85300361     0.11700
H1352       H  0.51284734  0.77422802  0.85272671     0.11700
H1353       H  0.50973737  0.73183385  0.87776179     0.11800
H1354       H  0.53676392  0.73002917  0.87792746     0.10700
C1355       C  0.20922682  0.79306177  0.65578558    -0.03100
C1356       C  0.20278244  0.78107412  0.66462759    -0.08900
C1357       C  0.21072820  0.77315171  0.67723157    -0.16600
C1358       C  0.22526680  0.77702194  0.68124195     0.25600
C1359       C  0.23173705  0.78898977  0.67262625    -0.18200
C1360       C  0.22380789  0.79694720  0.66004826    -0.07200
C1361       C  0.23354240  0.76871703  0.69412496    -0.13600
C1362       C  0.24041433  0.76180132  0.70495771    -0.13300
C1363       C  0.24841456  0.75360206  0.71818306     0.25500
C1364       C  0.26048196  0.75993034  0.72676488    -0.18700
C1365       C  0.26783182  0.75223652  0.74007134    -0.07200
C1366       C  0.26322854  0.73803440  0.74511067    -0.03300
C1367       C  0.25126684  0.73166575  0.73612092    -0.08600
C1368       C  0.24394633  0.73937790  0.72281806    -0.16200
H1369       H  0.19158001  0.77778893  0.66188437     0.11900
H1370       H  0.20552776  0.76396356  0.68381486     0.11200
H1371       H  0.24296293  0.79214367  0.67556670     0.11100
H1372       H  0.22922760  0.80601417  0.65353477     0.11700
H1373       H  0.26411679  0.77090775  0.72332190     0.11700
H1374       H  0.27696673  0.75757132  0.74654777     0.11700
H1375       H  0.24742866  0.72074714  0.73938920     0.11800
H1376       H  0.23467795  0.73428381  0.71627180     0.10700
C1377       C  0.25021813  0.54426803  0.86449307    -0.03100
C1378       C  0.25996997  0.55133915  0.87604362    -0.08900
C1379       C  0.26018552  0.56675543  0.87718877    -0.16600
C1380       C  0.25065225  0.57521775  0.86683381     0.25600
C1381       C  0.24032132  0.56817086  0.85616096    -0.18200
C1382       C  0.24009759  0.55283574  0.85500680    -0.07200
C1383       C  0.25261065  0.59094125  0.86530680    -0.13600
C1384       C  0.25484483  0.60373377  0.86186797    -0.13300
C1385       C  0.25831081  0.61843042  0.85593606     0.25500
C1386       C  0.25211451  0.62383662  0.84042508    -0.18700
C1387       C  0.25644860  0.63753206  0.83375670    -0.07200
C1388       C  0.26712316  0.64604766  0.84247164    -0.03300
C1389       C  0.27299519  0.64064289  0.85831512    -0.08600
C1390       C  0.26864777  0.62695785  0.86494011    -0.16200
H1391       H  0.26810654  0.54506663  0.88319756     0.11900
H1392       H  0.26832535  0.57207366  0.88539556     0.11200
H1393       H  0.23294084  0.57454588  0.84801028     0.11100
H1394       H  0.23250798  0.54767085  0.84595657     0.11700
H1395       H  0.24414996  0.61731686  0.83326338     0.11700
H1396       H  0.25163769  0.64124947  0.82158864     0.11700
H1397       H  0.28111039  0.64683311  0.86557935     0.11800
H1398       H  0.27357730  0.62290641  0.87692126     0.10700
C1399       C  0.45496922  0.74381555  0.86470543    -0.03100
C1400       C  0.44716442  0.75260680  0.87666596    -0.08900
C1401       C  0.43178093  0.75145009  0.87784842    -0.16600
C1402       C  0.42416419  0.74143830  0.86716529     0.25600
C1403       C  0.43204053  0.73216045  0.85594466    -0.18200
C1404       C  0.44730192  0.73336543  0.85468631    -0.07200
C1405       C  0.40828647  0.74118902  0.86651147    -0.13600
C1406       C  0.39522224  0.74012591  0.86382545    -0.13300
C1407       C  0.38009601  0.73766547  0.85880336     0.25500
C1408       C  0.37220988  0.72598034  0.86612802    -0.18700
C1409       C  0.35816010  0.72247704  0.85991188    -0.07200
C1410       C  0.35174307  0.73055246  0.84612155    -0.03300
C1411       C  0.35957380  0.74262305  0.83926246    -0.08600
C1412       C  0.37364467  0.74611463  0.84553121    -0.16200
H1413       H  0.45282887  0.76094013  0.88424434     0.11900
H1414       H  0.42580643  0.75873566  0.88654516     0.11200
H1415       H  0.42631677  0.72438847  0.84760385     0.11100
H1416       H  0.45309319  0.72658083  0.84526214     0.11700
H1417       H  0.37708181  0.71930146  0.87634203     0.11700
H1418       H  0.35257407  0.71317238  0.86568156     0.11700
H1419       H  0.35502847  0.74920207  0.82878752     0.11800
H1420       H  0.37964834  0.75516670  0.83968906     0.10700
C1421       C  0.25935908  0.29302268  0.75033455    -0.03100
C1422       C  0.24696100  0.29903026  0.74187598    -0.08900
C1423       C  0.23985927  0.29130583  0.72839999    -0.16600
C1424       C  0.24499950  0.27745725  0.72314230     0.25600
C1425       C  0.25734260  0.27142948  0.73139367    -0.18200
C1426       C  0.26446565  0.27912368  0.74483626    -0.07200
C1427       C  0.23758752  0.26938362  0.70939239    -0.13600
C1428       C  0.23130753  0.26263760  0.69794717    -0.13300
C1429       C  0.22352695  0.25484364  0.68425892     0.25500
C1430       C  0.22877955  0.24136221  0.67793056    -0.18700
C1431       C  0.22122306  0.23391677  0.66458638    -0.07200
C1432       C  0.20825521  0.23983992  0.65731083    -0.03300
C1433       C  0.20306358  0.25337662  0.66387417    -0.08600
C1434       C  0.21063396  0.26078551  0.67719527    -0.16200
H1435       H  0.24272416  0.30970358  0.74559136     0.11900
H1436       H  0.23032997  0.29612921  0.72211294     0.11200
H1437       H  0.26144285  0.26072484  0.72749030     0.11100
H1438       H  0.27387824  0.27403576  0.75100089     0.11700
H1439       H  0.23873968  0.23661008  0.68327906     0.11700
H1440       H  0.22562390  0.22355803  0.65999352     0.11700
H1441       H  0.19316573  0.25835276  0.65874821     0.11800
H1442       H  0.20642366  0.27119654  0.68196735     0.10700
C1443       C  0.45580971  0.29556105  0.86503932    -0.03100
C1444       C  0.44740522  0.30590763  0.85572699    -0.08900
C1445       C  0.43210068  0.30608693  0.85714028    -0.16600
C1446       C  0.42487969  0.29590172  0.86783803     0.25600
C1447       C  0.43319817  0.28608032  0.87800208    -0.18200
C1448       C  0.44862636  0.28591902  0.87662489    -0.07200
C1449       C  0.40901190  0.29494812  0.86690328    -0.13600
C1450       C  0.39596154  0.29515407  0.86375924    -0.13300
C1451       C  0.38080888  0.29679013  0.85827192     0.25500
C1452       C  0.37595765  0.29058186  0.84247229    -0.18700
C1453       C  0.36174361  0.29351890  0.83620330    -0.07200
C1454       C  0.35216718  0.30279694  0.84561122    -0.03300
C1455       C  0.35703143  0.30858780  0.86174786    -0.08600
C1456       C  0.37120809  0.30563779  0.86797044    -0.16200
H1457       H  0.45266868  0.31341486  0.84666170     0.11900
H1458       H  0.42584796  0.31375206  0.84922826     0.11200
H1459       H  0.42775608  0.27811859  0.88633267     0.11100
H1460       H  0.45482258  0.27767057  0.88370009     0.11700
H1461       H  0.38329741  0.28378029  0.83475323     0.11700
H1462       H  0.35845506  0.28886003  0.82376334     0.11700
H1463       H  0.34999705  0.31558941  0.86955765     0.11800
H1464       H  0.37479371  0.31056023  0.88017438     0.10700
C1465       C  0.26069144  0.48990290  0.86481805    -0.03100
C1466       C  0.27131240  0.48182954  0.85551197    -0.08900
C1467       C  0.27191766  0.46653753  0.85686515    -0.16600
C1468       C  0.26188725  0.45903416  0.86749710     0.25600
C1469       C  0.25181249  0.46704336  0.87767572    -0.18200
C1470       C  0.25123768  0.48245155  0.87638091    -0.07200
C1471       C  0.26126227  0.44318100  0.86645486    -0.13600
C1472       C  0.26142559  0.43013380  0.86336967    -0.13300
C1473       C  0.26262487  0.41492733  0.85803148     0.25500
C1474       C  0.25751216  0.41048306  0.84152966    -0.18700
C1475       C  0.25986147  0.39605540  0.83565599    -0.07200
C1476       C  0.26750622  0.38591017  0.84615980    -0.03300
C1477       C  0.27222139  0.39037459  0.86291676    -0.08600
C1478       C  0.26980059  0.40475918  0.86878719    -0.16200
H1479       H  0.27867215  0.48732588  0.84646787     0.11900
H1480       H  0.27976492  0.46050823  0.84893688     0.11200
H1481       H  0.24396266  0.46136137  0.88593604     0.11100
H1482       H  0.24278977  0.48840121  0.88344886     0.11700
H1483       H  0.25202002  0.41827179  0.83301975     0.11700
H1484       H  0.25616416  0.39302895  0.82267234     0.11700
H1485       H  0.27796360  0.38281161  0.87145165     0.11800
H1486       H  0.27383030  0.40803547  0.88156153     0.10700
C1487       C  0.76111442  0.23955692  0.65614258    -0.03100
C1488       C  0.76732239  0.25211434  0.66409029    -0.08900
C1489       C  0.75985003  0.25963235  0.67744306    -0.16600
C1490       C  0.74603666  0.25477301  0.68315319     0.25600
C1491       C  0.73979188  0.24225893  0.67543624    -0.18200
C1492       C  0.74723970  0.23471638  0.66207575    -0.07200
C1493       C  0.73823176  0.26268968  0.69678188    -0.13600
C1494       C  0.73162652  0.26937747  0.70805350    -0.13300
C1495       C  0.72360431  0.27742611  0.72139669     0.25500
C1496       C  0.71128006  0.27113754  0.72947944    -0.18700
C1497       C  0.70339787  0.27897070  0.74224127    -0.07200
C1498       C  0.70769534  0.29328444  0.74720447    -0.03300
C1499       C  0.72015054  0.29948120  0.73901309    -0.08600
C1500       C  0.72800688  0.29162537  0.72624656    -0.16200
H1501       H  0.77794631  0.25623249  0.66002867     0.11900
H1502       H  0.76484580  0.26928645  0.68327567     0.11200
H1503       H  0.72911596  0.23834502  0.67970133     0.11100
H1504       H  0.74203533  0.22513601  0.65640796     0.11700
H1505       H  0.70772811  0.26016120  0.72589722     0.11700
H1506       H  0.69397289  0.27372900  0.74821857     0.11700
H1507       H  0.72383815  0.31044457  0.74232845     0.11800
H1508       H  0.73750321  0.29666644  0.72011385     0.10700
C1509       C  0.61241287  0.30498654  0.83961350    -0.03100
C1510       C  0.60758289  0.31084451  0.85573555    -0.08900
C1511       C  0.59377030  0.30713559  0.86256644    -0.16600
C1512       C  0.58453428  0.29748853  0.85345163     0.25600
C1513       C  0.58936194  0.29133101  0.83761854    -0.18200
C1514       C  0.60319882  0.29500457  0.83076858    -0.07200
C1515       C  0.56983319  0.29448277  0.85978152    -0.13600
C1516       C  0.55711534  0.29221804  0.86362330    -0.13300
C1517       C  0.54151006  0.28966102  0.86571818     0.25500
C1518       C  0.53482785  0.27829177  0.85625694    -0.18700
C1519       C  0.51950518  0.27720810  0.85560121    -0.07200
C1520       C  0.51060259  0.28744987  0.86445377    -0.03300
C1521       C  0.51733595  0.29825565  0.87490225    -0.08600
C1522       C  0.53273635  0.29938331  0.87548002    -0.16200
H1523       H  0.61440623  0.31838408  0.86309681     0.11900
H1524       H  0.59020917  0.31198245  0.87482692     0.11200
H1525       H  0.58230794  0.28388372  0.83038478     0.11100
H1526       H  0.60648711  0.29030683  0.81834272     0.11700
H1527       H  0.54144026  0.27072867  0.84860364     0.11700
H1528       H  0.51456669  0.26885092  0.84735983     0.11700
H1529       H  0.51072981  0.30645458  0.88154702     0.11800
H1530       H  0.53775352  0.30829477  0.88277336     0.10700
C1531       C  0.69866290  0.38769115  0.84006945    -0.03100
C1532       C  0.71010144  0.39578212  0.83219712    -0.08900
C1533       C  0.71446301  0.40937779  0.83913932    -0.16600
C1534       C  0.70751638  0.41505980  0.85407154     0.25600
C1535       C  0.69639796  0.40695357  0.86222549    -0.18200
C1536       C  0.69202856  0.39338700  0.85533786    -0.07200
C1537       C  0.71106745  0.42961669  0.86029578    -0.13600
C1538       C  0.71345631  0.44229693  0.86405711    -0.13300
C1539       C  0.71596906  0.45788416  0.86581764     0.25500
C1540       C  0.70555100  0.46694592  0.87404727    -0.18700
C1541       C  0.70671864  0.48229292  0.87276059    -0.07200
C1542       C  0.71826358  0.48863525  0.86311813    -0.03300
C1543       C  0.72910455  0.47948234  0.85583330    -0.08600
C1544       C  0.72798144  0.46421810  0.85721112    -0.16200
H1545       H  0.71548322  0.39181836  0.82046897     0.11900
H1546       H  0.72304389  0.41559925  0.83264145     0.11200
H1547       H  0.69090061  0.41124230  0.87374713     0.11100
H1548       H  0.68332341  0.38750278  0.86196332     0.11700
H1549       H  0.69612383  0.46216579  0.88060966     0.11700
H1550       H  0.69807817  0.48911898  0.87818603     0.11700
H1551       H  0.73803851  0.48414703  0.84825701     0.11800
H1552       H  0.73605361  0.45734776  0.85070623     0.10700
loop_ 
_geom_bond_atom_site_label_1 
_geom_bond_atom_site_label_2 
_geom_bond_distance 
_geom_bond_site_symmetry_2 
_ccdc_geom_bond_type 
N1            N2   1.320       .  A
N1            C5   1.349       .  A
N1           Cu9   2.090       .  S
N2            C3   1.341       .  A
N2           Cu8   2.062       .  S
C3            C4   1.386       .  A
C3            H6   1.081       .  S
C4            C5   1.393       .  A
C4         C1531   1.490       .  S
C5            H7   1.081       .  S
Cu8          N11   2.062       .  S
Cu9          N19   2.092       .  S
Cu10         N12   2.100       .  S
Cu10         N18   2.101       .  S
N11          N12   1.321       .  A
N11          C15   1.342       .  A
N12          C13   1.351       .  A
C13          C14   1.394       .  A
C13          H16   1.081       .  S
C14          C15   1.385       .  A
C14        C1509   1.491       .  S
C15          H17   1.081       .  S
N18          N19   1.324       .  A
N18          C22   1.348       .  A
N19          C20   1.347       .  A
C20          C21   1.390       .  A
C20          H23   1.081       .  S
C21          C22   1.392       .  A
C21        C1498   1.497       .  S
C22          H24   1.081       .  S
N25          N26   1.320       .  A
N25          C29   1.351       .  A
N25         Cu33   2.095       .  S
N26          C27   1.342       .  A
N26         Cu32   2.066       .  S
C27          C28   1.387       .  A
C27          H30   1.081       .  S
C28          C29   1.395       .  A
C28        C1454   1.494       .  S
C29          H31   1.081       .  S
Cu32         N35   2.066       .  S
Cu33         N43   2.096       .  S
Cu34         N36   2.091       .  S
Cu34         N42   2.092       .  S
N35          N36   1.321       .  A
N35          C39   1.342       .  A
N36          C37   1.350       .  A
C37          C38   1.392       .  A
C37          H40   1.082       .  S
C38          C39   1.384       .  A
C38        C1476   1.487       .  S
C39          H41   1.082       .  S
N42          N43   1.325       .  A
N42          C46   1.348       .  A
N43          C44   1.346       .  A
C44          C45   1.389       .  A
C44          H47   1.081       .  S
C45          C46   1.390       .  A
C45        C1421   1.493       .  S
C46          H48   1.081       .  S
N49          N50   1.320       .  A
N49          C53   1.349       .  A
N49         Cu57   2.093       .  S
N50          C51   1.343       .  A
N50         Cu56   2.065       .  S
C51          C52   1.388       .  A
C51          H54   1.081       .  S
C52          C53   1.394       .  A
C52        C1410   1.493       .  S
C53          H55   1.081       .  S
Cu56         N59   2.065       .  S
Cu57         N67   2.095       .  S
Cu58         N60   2.097       .  S
Cu58         N66   2.098       .  S
N59          N60   1.321       .  A
N59          C63   1.342       .  A
N60          C61   1.350       .  A
C61          C62   1.395       .  A
C61          H64   1.081       .  S
C62          C63   1.386       .  A
C62        C1388   1.493       .  S
C63          H65   1.081       .  S
N66          N67   1.324       .  A
N66          C70   1.348       .  A
N67          C68   1.348       .  A
C68          C69   1.391       .  A
C68          H71   1.081       .  S
C69          C70   1.392       .  A
C69        C1366   1.498       .  S
C70          H72   1.081       .  S
N73          N74   1.320       .  A
N73          C77   1.348       .  A
N73         Cu81   2.086       .  S
N74          C75   1.341       .  A
N74         Cu80   2.057       .  S
C75          C76   1.384       .  A
C75          H78   1.081       .  S
C76          C77   1.390       .  A
C76        C1333   1.484       .  S
C77          H79   1.081       .  S
Cu80         N83   2.056       .  S
Cu81         N91   2.087       .  S
Cu82         N84   2.090       .  S
Cu82         N90   2.091       .  S
N83          N84   1.320       .  A
N83          C87   1.341       .  A
N84          C85   1.348       .  A
C85          C86   1.393       .  A
C85          H88   1.081       .  S
C86          C87   1.385       .  A
C86        C1311   1.487       .  S
C87          H89   1.081       .  S
N90          N91   1.323       .  A
N90          C94   1.347       .  A
N91          C92   1.346       .  A
C92          C93   1.390       .  A
C92          H95   1.081       .  S
C93          C94   1.391       .  A
C93        C1300   1.494       .  S
C94          H96   1.081       .  S
N97         C101   1.360       .  A
N97          C98   1.361       .  A
N97        C1267   1.444       .  S
C98          C99   1.382       .  A
C98        C1399   1.479       .  S
C99         C100   1.370       .  A
C99         H102   1.083       .  S
C100        C101   1.381       .  A
C100        H103   1.083       .  S
C101       C1344   1.477       .  S
N104        C108   1.363       .  A
N104        C105   1.361       .  A
N104       C1245   1.443       .  S
C105        C106   1.382       .  A
C105       C1465   1.482       .  S
C106        C107   1.370       .  A
C106        H109   1.083       .  S
C107        C108   1.383       .  A
C107        H110   1.082       .  S
C108       C1377   1.485       .  S
N111        C115   1.363       .  A
N111        C112   1.363       .  A
N111       C1223   1.446       .  S
C112        C113   1.383       .  A
C112       C1443   1.484       .  S
C113        C114   1.369       .  A
C113        H116   1.083       .  S
C114        C115   1.382       .  A
C114        H117   1.083       .  S
C115       C1520   1.483       .  S
N118        C122   1.360       .  A
N118        C119   1.359       .  A
N118       C1201   1.444       .  S
C119        C120   1.381       .  A
C119       C1322   1.474       .  S
C120        C121   1.370       .  A
C120        H123   1.083       .  S
C121        C122   1.382       .  A
C121        H124   1.082       .  S
C122       C1542   1.479       .  S
N125        C129   1.362       .  A
N125        C126   1.361       .  A
N125       C1135   1.444       .  S
C126        C127   1.382       .  A
C126       C1168   1.480       .  S
C127        C128   1.369       .  A
C127        H130   1.083       .  S
C128        C129   1.383       .  A
C128        H131   1.082       .  S
C129       C1179   1.483   1_545  S
N132        N133   1.320       .  A
N132        C136   1.349       .  A
N132       Cu140   2.092       .  S
N133        C134   1.342       .  A
N133       Cu139   2.063       .  S
C134        C135   1.385       .  A
C134        H137   1.081       .  S
C135        C136   1.393       .  A
C135       C1113   1.489       .  S
C136        H138   1.081       .  S
Cu139       N142   2.063       .  S
Cu140       N150   2.093       .  S
Cu141       N143   2.089       .  S
Cu141       N149   2.091       .  S
N142        N143   1.320       .  A
N142        C146   1.342       .  A
N143        C144   1.349       .  A
C144        C145   1.393       .  A
C144        H147   1.081       .  S
C145        C146   1.386       .  A
C145       C1157   1.489       .  S
C146        H148   1.081       .  S
N149        N150   1.324       .  A
N149        C153   1.347       .  A
N150        C151   1.347       .  A
C151        C152   1.391       .  A
C151        H154   1.081       .  S
C152        C153   1.391       .  A
C152       C1487   1.496       .  S
C153        H155   1.081       .  S
N156        C160   1.360       .  A
N156        C157   1.361       .  A
N156       C1047   1.442       .  S
C157        C158   1.383       .  A
C157       C1091   1.482   1_545  S
C158        C159   1.371       .  A
C158        H161   1.083       .  S
C159        C160   1.381       .  A
C159        H162   1.083       .  S
C160       C1080   1.480       .  S
N163        C167   1.363       .  A
N163        C164   1.362       .  A
N163       C1014   1.444       .  S
C164        C165   1.381       .  A
C164       C1124   1.482       .  S
C165        C166   1.370       .  A
C165        H168   1.083       .  S
C166        C167   1.383       .  A
C166        H169   1.083       .  S
C167       C1036   1.484   1_655  S
N170        N171   1.320       .  A
N170        C174   1.349       .  A
N170       Cu178   2.091       .  S
N171        C172   1.342       .  A
N171       Cu177   2.063       .  S
C172        C173   1.385       .  A
C172        H175   1.081       .  S
C173        C174   1.393       .  A
C173       C1025   1.489       .  S
C174        H176   1.081       .  S
Cu177       N180   2.063       .  S
Cu178       N188   2.092       .  S
Cu179       N181   2.088       .  S
Cu179       N187   2.089       .  S
N180        N181   1.320       .  A
N180        C184   1.342       .  A
N181        C182   1.349       .  A
C182        C183   1.393       .  A
C182        H185   1.081       .  S
C183        C184   1.386       .  A
C183       C1069   1.490       .  S
C184        H186   1.081       .  S
N187        N188   1.323       .  A
N187        C191   1.347       .  A
N188        C189   1.346       .  A
C189        C190   1.391       .  A
C189        H192   1.081       .  S
C190        C191   1.390       .  A
C190       C1432   1.494       .  S
C191        H193   1.081       .  S
N194        C198   1.363       .  A
N194        C195   1.363       .  A
N194        C937   1.446       .  S
C195        C196   1.382       .  A
C195        C959   1.482   1_655  S
C196        C197   1.369       .  A
C196        H199   1.083       .  S
C197        C198   1.381       .  A
C197        H200   1.083       .  S
C198        C981   1.480       .  S
N201        N202   1.321       .  A
N201        C205   1.349       .  A
N201       Cu209   2.089       .  S
N202        C203   1.342       .  A
N202       Cu208   2.064       .  S
C203        C204   1.385       .  A
C203        H206   1.081       .  S
C204        C205   1.392       .  A
C204       C1102   1.488       .  S
C205        H207   1.081       .  S
Cu208       N211   2.064       .  S
Cu209       N219   2.090       .  S
Cu210       N212   2.095       .  S
Cu210       N218   2.096       .  S
N211        N212   1.320       .  A
N211        C215   1.343       .  A
N212        C213   1.349       .  A
C213        C214   1.393       .  A
C213        H216   1.081       .  S
C214        C215   1.386       .  A
C214        C970   1.490       .  S
C215        H217   1.081       .  S
N218        N219   1.324       .  A
N218        C222   1.348       .  A
N219        C220   1.347       .  A
C220        C221   1.390       .  A
C220        H223   1.081       .  S
C221        C222   1.391       .  A
C221       C1355   1.495       .  S
C222        H224   1.081       .  S
N225        N226   1.321       .  A
N225        C229   1.350       .  A
N225       Cu233   2.092       .  S
N226        C227   1.342       .  A
N226       Cu232   2.067       .  S
C227        C228   1.386       .  A
C227        H230   1.081       .  S
C228        C229   1.393       .  A
C228        C992   1.490       .  S
C229        H231   1.081       .  S
Cu232       N235   2.067       .  S
Cu233       N243   2.093       .  S
Cu234       N236   2.090       .  S
Cu234       N242   2.092       .  S
N235        N236   1.320       .  A
N235        C239   1.342       .  A
N236        C237   1.350       .  A
C237        C238   1.394       .  A
C237        H240   1.081       .  S
C238        C239   1.387       .  A
C238       C1190   1.491       .  S
C239        H241   1.081       .  S
N242        N243   1.325       .  A
N242        C246   1.346       .  A
N243        C244   1.348       .  A
C244        C245   1.389       .  A
C244        H247   1.081       .  S
C245        C246   1.388       .  A
C245       C1289   1.492       .  S
C246        H248   1.081       .  S
N249        N250   1.320       .  A
N249        C253   1.348       .  A
N249       Cu257   2.087       .  S
N250        C251   1.342       .  A
N250       Cu256   2.063       .  S
C251        C252   1.386       .  A
C251        H254   1.081       .  S
C252        C253   1.392       .  A
C252        C926   1.489       .  S
C253        H255   1.081       .  S
Cu256       N259   2.063       .  S
Cu257       N267   2.087       .  S
Cu258       N260   2.087       .  S
Cu258       N266   2.088       .  S
N259        N260   1.321       .  A
N259        C263   1.342       .  A
N260        C261   1.348       .  A
C261        C262   1.390       .  A
C261        H264   1.082       .  S
C262        C263   1.385       .  A
C262        C893   1.485       .  S
C263        H265   1.081       .  S
N266        N267   1.323       .  A
N266        C270   1.347       .  A
N267        C268   1.346       .  A
C268        C269   1.389       .  A
C268        H271   1.081       .  S
C269        C270   1.391       .  A
C269        C871   1.493       .  S
C270        H272   1.081       .  S
N273        N274   1.321       .  A
N273        C277   1.350       .  A
N273       Cu281   2.094       .  S
N274        C275   1.342       .  A
N274       Cu280   2.066       .  S
C275        C276   1.385       .  A
C275        H278   1.081       .  S
C276        C277   1.393       .  A
C276        C860   1.489       .  S
C277        H279   1.081       .  S
Cu280       N283   2.066       .  S
Cu281       N291   2.095       .  S
Cu282       N284   2.092       .  S
Cu282       N290   2.093       .  S
N283        N284   1.320       .  A
N283        C287   1.343       .  A
N284        C285   1.350       .  A
C285        C286   1.393       .  A
C285        H288   1.081       .  S
C286        C287   1.387       .  A
C286        C827   1.491       .  S
C287        H289   1.081       .  S
N290        N291   1.324       .  A
N290        C294   1.346       .  A
N291        C292   1.349       .  A
C292        C293   1.392       .  A
C292        H295   1.081       .  S
C293        C294   1.390       .  A
C293        C816   1.497       .  S
C294        H296   1.081       .  S
N297        N298   1.321       .  A
N297        C301   1.350       .  A
N297       Cu305   2.090       .  S
N298        C299   1.342       .  A
N298       Cu304   2.067       .  S
C299        C300   1.384       .  A
C299        H302   1.082       .  S
C300        C301   1.391       .  A
C300        C783   1.486       .  S
C301        H303   1.082       .  S
Cu304       N307   2.067       .  S
Cu305       N315   2.091       .  S
Cu306       N308   2.088       .  S
Cu306       N314   2.090       .  S
N307        N308   1.320       .  A
N307        C311   1.343       .  A
N308        C309   1.349       .  A
C309        C310   1.392       .  A
C309        H312   1.081       .  S
C310        C311   1.386       .  A
C310        C761   1.489       .  S
C311        H313   1.081       .  S
N314        N315   1.324       .  A
N314        C318   1.347       .  A
N315        C316   1.347       .  A
C316        C317   1.390       .  A
C316        H319   1.081       .  S
C317        C318   1.390       .  A
C317        C739   1.495       .  S
C318        H320   1.081       .  S
N321        N322   1.320       .  A
N321        C325   1.349       .  A
N321       Cu329   2.094       .  S
N322        C323   1.342       .  A
N322       Cu328   2.059       .  S
C323        C324   1.385       .  A
C323        H326   1.081       .  S
C324        C325   1.393       .  A
C324        C717   1.489       .  S
C325        H327   1.081       .  S
Cu328       N331   2.058       .  S
Cu329       N339   2.094       .  S
Cu330       N332   2.093       .  S
Cu330       N338   2.094       .  S
N331        N332   1.320       .  A
N331        C335   1.341       .  A
N332        C333   1.349       .  A
C333        C334   1.394       .  A
C333        H336   1.081       .  S
C334        C335   1.385       .  A
C334        C695   1.490       .  S
C335        H337   1.081       .  S
N338        N339   1.324       .  A
N338        C342   1.348       .  A
N339        C340   1.347       .  A
C340        C341   1.390       .  A
C340        H343   1.081       .  S
C341        C342   1.390       .  A
C341        C684   1.494       .  S
C342        H344   1.081       .  S
N345        C349   1.361       .  A
N345        C346   1.362       .  A
N345       C1212   1.444       .  S
C346        C347   1.383       .  A
C346        C915   1.482       .  S
C347        C348   1.370       .  A
C347        H350   1.082       .  S
C348        C349   1.381       .  A
C348        H351   1.083       .  S
C349        C728   1.479       .  S
N352        C356   1.360       .  A
N352        C353   1.360       .  A
N352       C1278   1.443       .  S
C353        C354   1.382       .  A
C353        C706   1.480       .  S
C354        C355   1.371       .  A
C354        H357   1.082       .  S
C355        C356   1.382       .  A
C355        H358   1.083       .  S
C356        C794   1.478       .  S
N359        C363   1.363       .  A
N359        C360   1.363       .  A
N359       C1256   1.445       .  S
C360        C361   1.382       .  A
C360        C849   1.482       .  S
C361        C362   1.369       .  A
C361        H364   1.083       .  S
C362        C363   1.382       .  A
C362        H365   1.083       .  S
C363        C772   1.482       .  S
N366        C370   1.361       .  A
N366        C367   1.361       .  A
N366       C1234   1.443       .  S
C367        C368   1.382       .  A
C367        C904   1.481       .  S
C368        C369   1.371       .  A
C368        H371   1.083       .  S
C369        C370   1.382       .  A
C369        H372   1.082       .  S
C370        C838   1.479       .  S
N373        C377   1.362       .  A
N373        C374   1.362       .  A
N373        C948   1.447       .  S
C374        C375   1.382       .  A
C374        C629   1.481   1_655  S
C375        C376   1.369       .  A
C375        H378   1.083       .  S
C376        C377   1.382       .  A
C376        H379   1.083       .  S
C377        C651   1.479       .  S
N380        N381   1.320       .  A
N380        C384   1.349       .  A
N380       Cu388   2.093       .  S
N381        C382   1.342       .  A
N381       Cu387   2.061       .  S
C382        C383   1.386       .  A
C382        H385   1.081       .  S
C383        C384   1.394       .  A
C383        C640   1.492       .  S
C384        H386   1.081       .  S
Cu387       N390   2.061       .  S
Cu388       N398   2.094       .  S
Cu389       N391   2.093       .  S
Cu389       N397   2.094       .  S
N390        N391   1.321       .  A
N390        C394   1.342       .  A
N391        C392   1.348       .  A
C392        C393   1.392       .  A
C392        H395   1.081       .  S
C393        C394   1.385       .  A
C393        C618   1.487       .  S
C394        H396   1.081       .  S
N397        N398   1.323       .  A
N397        C401   1.349       .  A
N398        C399   1.347       .  A
C399        C400   1.391       .  A
C399        H402   1.081       .  S
C400        C401   1.392       .  A
C400        C750   1.497       .  S
C401        H403   1.081       .  S
N404        C408   1.361       .  A
N404        C405   1.361       .  A
N404       C1058   1.445       .  S
C405        C406   1.382       .  A
C405        C607   1.479   1_545  S
C406        C407   1.368       .  A
C406        H409   1.083       .  S
C407        C408   1.382       .  A
C407        H410   1.083       .  S
C408        C585   1.479       .  S
N411        C415   1.362       .  A
N411        C412   1.363       .  A
N411       C1003   1.446       .  S
C412        C413   1.383       .  A
C412        C563   1.482       .  S
C413        C414   1.368       .  A
C413        H416   1.082       .  S
C414        C415   1.381       .  A
C414        H417   1.083       .  S
C415        C541   1.478   1_655  S
N418        N419   1.320       .  A
N418        C422   1.348       .  A
N418       Cu426   2.088       .  S
N419        C420   1.342       .  A
N419       Cu425   2.063       .  S
C420        C421   1.386       .  A
C420        H423   1.081       .  S
C421        C422   1.392       .  A
C421        C596   1.489       .  S
C422        H424   1.081       .  S
Cu425       N428   2.063       .  S
Cu426       N436   2.089       .  S
Cu427       N429   2.091       .  S
Cu427       N435   2.092       .  S
N428        N429   1.321       .  A
N428        C432   1.342       .  A
N429        C430   1.348       .  A
C430        C431   1.392       .  A
C430        H433   1.081       .  S
C431        C432   1.385       .  A
C431        C552   1.488       .  S
C432        H434   1.081       .  S
N435        N436   1.323       .  A
N435        C439   1.348       .  A
N436        C437   1.347       .  A
C437        C438   1.390       .  A
C437        H440   1.081       .  S
C438        C439   1.392       .  A
C438        C805   1.496       .  S
C439        H441   1.081       .  S
N442        C446   1.363       .  A
N442        C443   1.363       .  A
N442       C1146   1.446       .  S
C443        C444   1.382       .  A
C443        C508   1.481       .  S
C444        C445   1.368       .  A
C444        H447   1.083       .  S
C445        C446   1.381       .  A
C445        H448   1.083   1_545  S
C446        C530   1.481   1_545  S
N449        N450   1.321       .  A
N449        C453   1.351       .  A
N449       Cu457   2.095       .  S
N450        C451   1.341       .  A
N450       Cu456   2.062       .  S
C451        C452   1.384       .  A
C451        H454   1.081       .  S
C452        C453   1.394       .  A
C452        C497   1.489       .  S
C453        H455   1.082       .  S
Cu456       N459   2.062       .  S
Cu457       N467   2.096       .  S
Cu458       N460   2.090       .  S
Cu458       N466   2.091       .  S
N459        N460   1.319       .  A
N459        C463   1.343       .  A
N460        C461   1.348       .  A
C461        C462   1.394       .  A
C461        H464   1.081       .  S
C462        C463   1.387       .  A
C462        C574   1.491       .  S
C463        H465   1.081       .  S
N466        N467   1.324       .  A
N466        C470   1.347       .  A
N467        C468   1.347       .  A
C468        C469   1.391       .  A
C468        H471   1.081       .  S
C469        C470   1.390       .  A
C469        C882   1.495       .  S
C470        H472   1.081       .  S
N473        N474   1.320       .  A
N473        C477   1.349       .  A
N473       Cu481   2.090       .  S
N474        C475   1.341       .  A
N474       Cu480   2.058       .  S
C475        C476   1.385       .  A
C475        H478   1.081       .  S
C476        C477   1.393       .  A
C476        C519   1.488       .  S
C477        H479   1.081       .  S
Cu480       N483   2.059       .  S
Cu481       N491   2.091       .  S
Cu482       N484   2.087       .  S
Cu482       N490   2.088       .  S
N483        N484   1.320       .  A
N483        C487   1.342       .  A
N484        C485   1.348       .  A
C485        C486   1.392       .  A
C485        H488   1.081       .  S
C486        C487   1.385       .  A
C486        C662   1.486       .  S
C487        H489   1.081       .  S
N490        N491   1.324       .  A
N490        C494   1.347       .  A
N491        C492   1.346       .  A
C492        C493   1.390       .  A
C492        H495   1.081       .  S
C493        C494   1.390       .  A
C493        C673   1.493       .  S
C494        H496   1.081       .  S
C497        C498   1.409       .  A
C497        C502   1.407       .  A
C498        C499   1.398       .  A
C498        H511   1.082       .  S
C499        C500   1.398       .  A
C499        H512   1.083       .  S
C500        C501   1.403       .  A
C500        C503   1.446       .  S
C501        C502   1.403       .  A
C501        H513   1.083       .  S
C502        H514   1.082       .  S
C503        C504   1.210       .  T
C504        C505   1.446       .  S
C505        C506   1.405       .  A
C505        C510   1.398       .  A
C506        C507   1.407       .  A
C506        H515   1.083       .  S
C507        C508   1.405       .  A
C507        H516   1.083       .  S
C508        C509   1.405       .  A
C509        C510   1.394       .  A
C509        H517   1.084       .  S
C510        H518   1.084       .  S
C519        C520   1.407       .  A
C519        C524   1.410       .  A
C520        C521   1.402       .  A
C520        H533   1.082       .  S
C521        C522   1.402       .  A
C521        H534   1.083       .  S
C522        C523   1.397       .  A
C522        C525   1.444       .  S
C523        C524   1.398       .  A
C523        H535   1.084       .  S
C524        H536   1.081       .  S
C525        C526   1.208       .  T
C526        C527   1.443       .  S
C527        C528   1.398       .  A
C527        C532   1.404       .  A
C528        C529   1.396       .  A
C528        H537   1.084       .  S
C529        C530   1.405       .  A
C529        H538   1.083       .  S
C530        C531   1.405       .  A
C531        C532   1.404       .  A
C531        H539   1.083       .  S
C532        H540   1.083       .  S
C541        C542   1.404       .  A
C541        C546   1.405       .  A
C542        C543   1.393       .  A
C542        H555   1.084       .  S
C543        C544   1.398       .  A
C543        H556   1.084       .  S
C544        C545   1.404       .  A
C544        C547   1.442       .  S
C545        C546   1.405       .  A
C545        H557   1.083       .  S
C546        H558   1.083       .  S
C547        C548   1.208       .  T
C548        C549   1.442       .  S
C549        C550   1.398       .  A
C549        C554   1.401       .  A
C550        C551   1.399       .  A
C550        H559   1.083       .  S
C551        C552   1.409       .  A
C551        H560   1.081       .  S
C552        C553   1.408       .  A
C553        C554   1.401       .  A
C553        H561   1.082       .  S
C554        H562   1.084       .  S
C563        C564   1.406       .  A
C563        C568   1.406       .  A
C564        C565   1.404       .  A
C564        H577   1.083       .  S
C565        C566   1.404       .  A
C565        H578   1.083       .  S
C566        C567   1.398       .  A
C566        C569   1.443       .  S
C567        C568   1.395       .  A
C567        H579   1.084       .  S
C568        H580   1.083       .  S
C569        C570   1.208       .  T
C570        C571   1.444       .  S
C571        C572   1.401       .  A
C571        C576   1.398       .  A
C572        C573   1.401       .  A
C572        H581   1.083       .  S
C573        C574   1.408       .  A
C573        H582   1.081       .  S
C574        C575   1.411       .  A
C575        C576   1.400       .  A
C575        H583   1.081       .  S
C576        H584   1.084       .  S
C585        C586   1.405       .  A
C585        C590   1.405       .  A
C586        C587   1.395       .  A
C586        H599   1.083       .  S
C587        C588   1.398       .  A
C587        H600   1.084       .  S
C588        C589   1.403       .  A
C588        C591   1.441       .  S
C589        C590   1.403       .  A
C589        H601   1.083       .  S
C590        H602   1.083       .  S
C591        C592   1.207       .  T
C592        C593   1.442       .  S
C593        C594   1.397       .  A
C593        C598   1.401       .  A
C594        C595   1.398       .  A
C594        H603   1.084       .  S
C595        C596   1.410       .  A
C595        H604   1.081       .  S
C596        C597   1.408       .  A
C597        C598   1.400       .  A
C597        H605   1.081       .  S
C598        H606   1.083       .  S
C607        C608   1.404       .  A
C607        C612   1.405       .  A
C608        C609   1.394       .  A
C608        H621   1.083       .  S
C609        C610   1.398       .  A
C609        H622   1.084       .  S
C610        C611   1.404       .  A
C610        C613   1.442       .  S
C611        C612   1.404       .  A
C611        H623   1.083       .  S
C612        H624   1.083       .  S
C613        C614   1.207       .  T
C614        C615   1.442       .  S
C615        C616   1.398       .  A
C615        C620   1.401       .  A
C616        C617   1.399       .  A
C616        H625   1.083       .  S
C617        C618   1.409       .  A
C617        H626   1.082       .  S
C618        C619   1.407       .  A
C619        C620   1.400       .  A
C619        H627   1.082       .  S
C620        H628   1.084       .  S
C629        C630   1.405       .  A
C629        C634   1.406       .  A
C630        C631   1.403       .  A
C630        H643   1.083       .  S
C631        C632   1.403       .  A
C631        H644   1.083       .  S
C632        C633   1.399       .  A
C632        C635   1.444       .  S
C633        C634   1.397       .  A
C633        H645   1.084       .  S
C634        H646   1.083       .  S
C635        C636   1.209       .  T
C636        C637   1.444       .  S
C637        C638   1.398       .  A
C637        C642   1.401       .  A
C638        C639   1.399       .  A
C638        H647   1.084       .  S
C639        C640   1.411       .  A
C639        H648   1.080       .  S
C640        C641   1.408       .  A
C641        C642   1.402       .  A
C641        H649   1.082       .  S
C642        H650   1.083       .  S
C651        C652   1.405       .  A
C651        C656   1.404       .  A
C652        C653   1.395       .  A
C652        H665   1.084       .  S
C653        C654   1.399       .  A
C653        H666   1.084       .  S
C654        C655   1.403       .  A
C654        C657   1.443       .  S
C655        C656   1.404       .  A
C655        H667   1.083       .  S
C656        H668   1.083       .  S
C657        C658   1.208       .  T
C658        C659   1.443       .  S
C659        C660   1.401       .  A
C659        C664   1.399       .  A
C660        C661   1.400       .  A
C660        H669   1.083       .  S
C661        C662   1.406       .  A
C661        H670   1.082       .  S
C662        C663   1.409       .  A
C663        C664   1.399       .  A
C663        H671   1.082       .  S
C664        H672   1.083       .  S
C673        C674   1.409       .  A
C673        C678   1.410       .  A
C674        C675   1.400       .  A
C674        H687   1.081       .  S
C675        C676   1.399       .  A
C675        H688   1.083       .  S
C676        C677   1.401       .  A
C676        C679   1.448       .  S
C677        C678   1.403       .  A
C677        H689   1.083       .  S
C678        H690   1.081       .  S
C679        C680   1.211       .  T
C680        C681   1.448       .  S
C681        C682   1.400       .  A
C681        C686   1.401       .  A
C682        C683   1.401       .  A
C682        H691   1.083       .  S
C683        C684   1.409       .  A
C683        H692   1.081       .  S
C684        C685   1.410       .  A
C685        C686   1.403       .  A
C685        H693   1.082       .  S
C686        H694   1.083       .  S
C695        C696   1.408       .  A
C695        C700   1.411       .  A
C696        C697   1.401       .  A
C696        H709   1.082       .  S
C697        C698   1.401       .  A
C697        H710   1.083       .  S
C698        C699   1.397       .  A
C698        C701   1.442       .  S
C699        C700   1.398       .  A
C699        H711   1.084       .  S
C700        H712   1.081       .  S
C701        C702   1.207       .  T
C702        C703   1.441       .  S
C703        C704   1.402       .  A
C703        C708   1.399       .  A
C704        C705   1.401       .  A
C704        H713   1.083       .  S
C705        C706   1.405       .  A
C705        H714   1.083       .  S
C706        C707   1.405       .  A
C707        C708   1.396       .  A
C707        H715   1.083       .  S
C708        H716   1.084       .  S
C717        C718   1.408       .  A
C717        C722   1.410       .  A
C718        C719   1.402       .  A
C718        H731   1.082       .  S
C719        C720   1.402       .  A
C719        H732   1.083       .  S
C720        C721   1.398       .  A
C720        C723   1.445       .  S
C721        C722   1.399       .  A
C721        H733   1.083       .  S
C722        H734   1.081       .  S
C723        C724   1.209       .  T
C724        C725   1.444       .  S
C725        C726   1.398       .  A
C725        C730   1.404       .  A
C726        C727   1.395       .  A
C726        H735   1.084       .  S
C727        C728   1.404       .  A
C727        H736   1.083       .  S
C728        C729   1.405       .  A
C729        C730   1.405       .  A
C729        H737   1.083       .  S
C730        H738   1.083       .  S
C739        C740   1.410       .  A
C739        C744   1.410       .  A
C740        C741   1.402       .  A
C740        H753   1.081       .  S
C741        C742   1.401       .  A
C741        H754   1.083       .  S
C742        C743   1.400       .  A
C742        C745   1.449       .  S
C743        C744   1.402       .  A
C743        H755   1.083       .  S
C744        H756   1.081       .  S
C745        C746   1.212       .  T
C746        C747   1.449       .  S
C747        C748   1.401       .  A
C747        C752   1.400       .  A
C748        C749   1.403       .  A
C748        H757   1.083       .  S
C749        C750   1.410       .  A
C749        H758   1.081       .  S
C750        C751   1.410       .  A
C751        C752   1.402       .  A
C751        H759   1.081       .  S
C752        H760   1.083       .  S
C761        C762   1.409       .  A
C761        C766   1.408       .  A
C762        C763   1.399       .  A
C762        H775   1.081       .  S
C763        C764   1.398       .  A
C763        H776   1.084       .  S
C764        C765   1.402       .  A
C764        C767   1.446       .  S
C765        C766   1.402       .  A
C765        H777   1.083       .  S
C766        H778   1.082       .  S
C767        C768   1.209       .  T
C768        C769   1.445       .  S
C769        C770   1.398       .  A
C769        C774   1.404       .  A
C770        C771   1.396       .  A
C770        H779   1.084       .  S
C771        C772   1.405       .  A
C771        H780   1.083       .  S
C772        C773   1.405       .  A
C773        C774   1.405       .  A
C773        H781   1.083       .  S
C774        H782   1.083       .  S
C783        C784   1.408       .  A
C783        C788   1.407       .  A
C784        C785   1.399       .  A
C784        H797   1.082       .  S
C785        C786   1.398       .  A
C785        H798   1.083       .  S
C786        C787   1.402       .  A
C786        C789   1.444       .  S
C787        C788   1.402       .  A
C787        H799   1.083       .  S
C788        H800   1.082       .  S
C789        C790   1.209       .  T
C790        C791   1.444       .  S
C791        C792   1.403       .  A
C791        C796   1.399       .  A
C792        C793   1.403       .  A
C792        H801   1.083       .  S
C793        C794   1.404       .  A
C793        H802   1.083       .  S
C794        C795   1.404       .  A
C795        C796   1.396       .  A
C795        H803   1.083       .  S
C796        H804   1.084       .  S
C805        C806   1.410       .  A
C805        C810   1.411       .  A
C806        C807   1.402       .  A
C806        H819   1.081       .  S
C807        C808   1.400       .  A
C807        H820   1.083       .  S
C808        C809   1.401       .  A
C808        C811   1.450       .  S
C809        C810   1.403       .  A
C809        H821   1.083       .  S
C810        H822   1.081       .  S
C811        C812   1.212       .  T
C812        C813   1.450       .  S
C813        C814   1.400       .  A
C813        C818   1.401       .  A
C814        C815   1.402       .  A
C814        H823   1.083       .  S
C815        C816   1.411       .  A
C815        H824   1.081       .  S
C816        C817   1.410       .  A
C817        C818   1.403       .  A
C817        H825   1.081       .  S
C818        H826   1.083       .  S
C827        C828   1.408       .  A
C827        C832   1.410       .  A
C828        C829   1.403       .  A
C828        H841   1.082       .  S
C829        C830   1.402       .  A
C829        H842   1.083       .  S
C830        C831   1.399       .  A
C830        C833   1.448       .  S
C831        C832   1.400       .  A
C831        H843   1.083       .  S
C832        H844   1.081       .  S
C833        C834   1.211       .  T
C834        C835   1.447       .  S
C835        C836   1.399       .  A
C835        C840   1.405       .  A
C836        C837   1.396       .  A
C836        H845   1.084       .  S
C837        C838   1.404       .  A
C837        H846   1.083       .  S
C838        C839   1.405       .  A
C839        C840   1.406       .  A
C839        H847   1.083       .  S
C840        H848   1.083       .  S
C849        C850   1.405       .  A
C849        C854   1.406       .  A
C850        C851   1.395       .  A
C850        H863   1.083       .  S
C851        C852   1.398       .  A
C851        H864   1.084       .  S
C852        C853   1.404       .  A
C852        C855   1.445       .  S
C853        C854   1.406       .  A
C853        H865   1.083       .  S
C854        H866   1.083       .  S
C855        C856   1.209       .  T
C856        C857   1.445       .  S
C857        C858   1.402       .  A
C857        C862   1.398       .  A
C858        C859   1.403       .  A
C858        H867   1.083       .  S
C859        C860   1.408       .  A
C859        H868   1.082       .  S
C860        C861   1.409       .  A
C861        C862   1.398       .  A
C861        H869   1.081       .  S
C862        H870   1.084       .  S
C871        C872   1.409       .  A
C871        C876   1.410       .  A
C872        C873   1.401       .  A
C872        H885   1.081       .  S
C873        C874   1.400       .  A
C873        H886   1.083       .  S
C874        C875   1.399       .  A
C874        C877   1.447       .  S
C875        C876   1.401       .  A
C875        H887   1.083       .  S
C876        H888   1.081       .  S
C877        C878   1.210       .  T
C878        C879   1.447       .  S
C879        C880   1.401       .  A
C879        C884   1.399       .  A
C880        C881   1.403       .  A
C880        H889   1.083       .  S
C881        C882   1.410       .  A
C881        H890   1.081       .  S
C882        C883   1.409       .  A
C883        C884   1.400       .  A
C883        H891   1.081       .  S
C884        H892   1.083       .  S
C893        C894   1.408       .  A
C893        C898   1.407       .  A
C894        C895   1.398       .  A
C894        H907   1.082       .  S
C895        C896   1.399       .  A
C895        H908   1.084       .  S
C896        C897   1.401       .  A
C896        C899   1.443       .  S
C897        C898   1.401       .  A
C897        H909   1.083       .  S
C898        H910   1.082       .  S
C899        C900   1.208       .  T
C900        C901   1.443       .  S
C901        C902   1.403       .  A
C901        C906   1.399       .  A
C902        C903   1.403       .  A
C902        H911   1.083       .  S
C903        C904   1.405       .  A
C903        H912   1.083       .  S
C904        C905   1.405       .  A
C905        C906   1.397       .  A
C905        H913   1.083       .  S
C906        H914   1.084       .  S
C915        C916   1.405       .  A
C915        C920   1.406       .  A
C916        C917   1.396       .  A
C916        H929   1.083       .  S
C917        C918   1.398       .  A
C917        H930   1.084       .  S
C918        C919   1.404       .  A
C918        C921   1.444       .  S
C919        C920   1.404       .  A
C919        H931   1.083       .  S
C920        H932   1.083       .  S
C921        C922   1.209       .  T
C922        C923   1.444       .  S
C923        C924   1.402       .  A
C923        C928   1.398       .  A
C924        C925   1.401       .  A
C924        H933   1.083       .  S
C925        C926   1.408       .  A
C925        H934   1.082       .  S
C926        C927   1.410       .  A
C927        C928   1.399       .  A
C927        H935   1.081       .  S
C928        H936   1.084       .  S
C937        C938   1.406       .  A
C937        C942   1.407       .  A
C938        C939   1.401       .  A
C938        H951   1.082       .  S
C939        C940   1.402       .  A
C939        H952   1.083       .  S
C940        C941   1.401       .  A
C940        C943   1.448       .  S
C941        C942   1.402       .  A
C941        H953   1.083       .  S
C942        H954   1.082       .  S
C943        C944   1.211       .  T
C944        C945   1.448       .  S
C945        C946   1.402       .  A
C945        C950   1.401       .  A
C946        C947   1.403       .  A
C946        H955   1.083       .  S
C947        C948   1.407       .  A
C947        H956   1.082       .  S
C948        C949   1.407       .  A
C949        C950   1.400       .  A
C949        H957   1.082       .  S
C950        H958   1.083       .  S
C959        C960   1.405       .  A
C959        C964   1.406       .  A
C960        C961   1.405       .  A
C960        H973   1.083       .  S
C961        C962   1.404       .  A
C961        H974   1.083       .  S
C962        C963   1.398       .  A
C962        C965   1.445       .  S
C963        C964   1.396       .  A
C963        H975   1.084       .  S
C964        H976   1.083       .  S
C965        C966   1.209       .  T
C966        C967   1.446       .  S
C967        C968   1.402       .  A
C967        C972   1.399       .  A
C968        C969   1.402       .  A
C968        H977   1.083       .  S
C969        C970   1.407       .  A
C969        H978   1.082       .  S
C970        C971   1.410       .  A
C971        C972   1.400       .  A
C971        H979   1.082       .  S
C972        H980   1.083       .  S
C981        C982   1.405       .  A
C981        C986   1.404       .  A
C982        C983   1.405       .  A
C982        H995   1.083       .  S
C983        C984   1.404       .  A
C983        H996   1.083       .  S
C984        C985   1.399       .  A
C984        C987   1.446       .  S
C985        C986   1.396       .  A
C985        H997   1.084       .  S
C986        H998   1.083       .  S
C987        C988   1.210       .  T
C988        C989   1.447       .  S
C989        C990   1.399       .  A
C989        C994   1.402       .  A
C990        C991   1.399       .  A
C990        H999   1.083       .  S
C991        C992   1.410       .  A
C991       H1000   1.081       .  S
C992        C993   1.408       .  A
C993        C994   1.403       .  A
C993       H1001   1.082       .  S
C994       H1002   1.083       .  S
C1003      C1004   1.407       .  A
C1003      C1008   1.406       .  A
C1004      C1005   1.403       .  A
C1004      H1017   1.082       .  S
C1005      C1006   1.403       .  A
C1005      H1018   1.083       .  S
C1006      C1007   1.400       .  A
C1006      C1009   1.447       .  S
C1007      C1008   1.399       .  A
C1007      H1019   1.083       .  S
C1008      H1020   1.082       .  S
C1009      C1010   1.210       .  T
C1010      C1011   1.447       .  S
C1011      C1012   1.401       .  A
C1011      C1016   1.402       .  A
C1012      C1013   1.401       .  A
C1012      H1021   1.083       .  S
C1013      C1014   1.406       .  A
C1013      H1022   1.082       .  S
C1014      C1015   1.406       .  A
C1015      C1016   1.401       .  A
C1015      H1023   1.082       .  S
C1016      H1024   1.083       .  S
C1025      C1026   1.409       .  A
C1025      C1030   1.407       .  A
C1026      C1027   1.399       .  A
C1026      H1039   1.082       .  S
C1027      C1028   1.399       .  A
C1027      H1040   1.083       .  S
C1028      C1029   1.402       .  A
C1028      C1031   1.446       .  S
C1029      C1030   1.402       .  A
C1029      H1041   1.083       .  S
C1030      H1042   1.082       .  S
C1031      C1032   1.210       .  T
C1032      C1033   1.446       .  S
C1033      C1034   1.405       .  A
C1033      C1038   1.398       .  A
C1034      C1035   1.407       .  A
C1034      H1043   1.083       .  S
C1035      C1036   1.406       .  A
C1035      H1044   1.083       .  S
C1036      C1037   1.405       .  A
C1037      C1038   1.395       .  A
C1037      H1045   1.083       .  S
C1038      H1046   1.084       .  S
C1047      C1048   1.405       .  A
C1047      C1052   1.405       .  A
C1048      C1049   1.399       .  A
C1048      H1061   1.083       .  S
C1049      C1050   1.400       .  A
C1049      H1062   1.083       .  S
C1050      C1051   1.403       .  A
C1050      C1053   1.446       .  S
C1051      C1052   1.402       .  A
C1051      H1063   1.083       .  S
C1052      H1064   1.083       .  S
C1053      C1054   1.210       .  T
C1054      C1055   1.446       .  S
C1055      C1056   1.401       .  A
C1055      C1060   1.402       .  A
C1056      C1057   1.400       .  A
C1056      H1065   1.083       .  S
C1057      C1058   1.406       .  A
C1057      H1066   1.082       .  S
C1058      C1059   1.406       .  A
C1059      C1060   1.401       .  A
C1059      H1067   1.082       .  S
C1060      H1068   1.083       .  S
C1069      C1070   1.410       .  A
C1069      C1074   1.408       .  A
C1070      C1071   1.399       .  A
C1070      H1083   1.081       .  S
C1071      C1072   1.398       .  A
C1071      H1084   1.084       .  S
C1072      C1073   1.402       .  A
C1072      C1075   1.445       .  S
C1073      C1074   1.401       .  A
C1073      H1085   1.083       .  S
C1074      H1086   1.082       .  S
C1075      C1076   1.209       .  T
C1076      C1077   1.444       .  S
C1077      C1078   1.399       .  A
C1077      C1082   1.404       .  A
C1078      C1079   1.396       .  A
C1078      H1087   1.084       .  S
C1079      C1080   1.405       .  A
C1079      H1088   1.083       .  S
C1080      C1081   1.405       .  A
C1081      C1082   1.404       .  A
C1081      H1089   1.083       .  S
C1082      H1090   1.083       .  S
C1091      C1092   1.405       .  A
C1091      C1096   1.406       .  A
C1092      C1093   1.395       .  A
C1092      H1105   1.083       .  S
C1093      C1094   1.398       .  A
C1093      H1106   1.084       .  S
C1094      C1095   1.404       .  A
C1094      C1097   1.444       .  S
C1095      C1096   1.405       .  A
C1095      H1107   1.083       .  S
C1096      H1108   1.083       .  S
C1097      C1098   1.209       .  T
C1098      C1099   1.444       .  S
C1099      C1100   1.401       .  A
C1099      C1104   1.399       .  A
C1100      C1101   1.401       .  A
C1100      H1109   1.083       .  S
C1101      C1102   1.407       .  A
C1101      H1110   1.082       .  S
C1102      C1103   1.410       .  A
C1103      C1104   1.400       .  A
C1103      H1111   1.082       .  S
C1104      H1112   1.083       .  S
C1113      C1114   1.410       .  A
C1113      C1118   1.407       .  A
C1114      C1115   1.400       .  A
C1114      H1127   1.081       .  S
C1115      C1116   1.399       .  A
C1115      H1128   1.084       .  S
C1116      C1117   1.402       .  A
C1116      C1119   1.446       .  S
C1117      C1118   1.402       .  A
C1117      H1129   1.083       .  S
C1118      H1130   1.082       .  S
C1119      C1120   1.210       .  T
C1120      C1121   1.446       .  S
C1121      C1122   1.399       .  A
C1121      C1126   1.404       .  A
C1122      C1123   1.397       .  A
C1122      H1131   1.084       .  S
C1123      C1124   1.405       .  A
C1123      H1132   1.083       .  S
C1124      C1125   1.405       .  A
C1125      C1126   1.405       .  A
C1125      H1133   1.083       .  S
C1126      H1134   1.083       .  S
C1135      C1136   1.405       .  A
C1135      C1140   1.406       .  A
C1136      C1137   1.400       .  A
C1136      H1149   1.083       .  S
C1137      C1138   1.402       .  A
C1137      H1150   1.083       .  S
C1138      C1139   1.401       .  A
C1138      C1141   1.446       .  S
C1139      C1140   1.401       .  A
C1139      H1151   1.083       .  S
C1140      H1152   1.082       .  S
C1141      C1142   1.210       .  T
C1142      C1143   1.446       .  S
C1143      C1144   1.403       .  A
C1143      C1148   1.399       .  A
C1144      C1145   1.404       .  A
C1144      H1153   1.083       .  S
C1145      C1146   1.407       .  A
C1145      H1154   1.082       .  S
C1146      C1147   1.406       .  A
C1147      C1148   1.398       .  A
C1147      H1155   1.082       .  S
C1148      H1156   1.084       .  S
C1157      C1158   1.408       .  A
C1157      C1162   1.409       .  A
C1158      C1159   1.402       .  A
C1158      H1171   1.082       .  S
C1159      C1160   1.402       .  A
C1159      H1172   1.083       .  S
C1160      C1161   1.398       .  A
C1160      C1163   1.443       .  S
C1161      C1162   1.398       .  A
C1161      H1173   1.084       .  S
C1162      H1174   1.081       .  S
C1163      C1164   1.208       .  T
C1164      C1165   1.443       .  S
C1165      C1166   1.398       .  A
C1165      C1170   1.404       .  A
C1166      C1167   1.394       .  A
C1166      H1175   1.084       .  S
C1167      C1168   1.405       .  A
C1167      H1176   1.083       .  S
C1168      C1169   1.405       .  A
C1169      C1170   1.405       .  A
C1169      H1177   1.083       .  S
C1170      H1178   1.083       .  S
C1179      C1180   1.406       .  A
C1179      C1184   1.406       .  A
C1180      C1181   1.396       .  A
C1180      H1193   1.083       .  S
C1181      C1182   1.398       .  A
C1181      H1194   1.084       .  S
C1182      C1183   1.404       .  A
C1182      C1185   1.444       .  S
C1183      C1184   1.404       .  A
C1183      H1195   1.083       .  S
C1184      H1196   1.083       .  S
C1185      C1186   1.209       .  T
C1186      C1187   1.445       .  S
C1187      C1188   1.398       .  A
C1187      C1192   1.402       .  A
C1188      C1189   1.399       .  A
C1188      H1197   1.084       .  S
C1189      C1190   1.410       .  A
C1189      H1198   1.081       .  S
C1190      C1191   1.408       .  A
C1191      C1192   1.402       .  A
C1191      H1199   1.082       .  S
C1192      H1200   1.083       .  S
C1201      C1202   1.406       .  A
C1201      C1206   1.406       .  A
C1202      C1203   1.398       .  A
C1202      H1215   1.082       .  S
C1203      C1204   1.400       .  A
C1203      H1216   1.083       .  S
C1204      C1205   1.402       .  A
C1204      C1207   1.444       .  S
C1205      C1206   1.402       .  A
C1205      H1217   1.083       .  S
C1206      H1218   1.082       .  S
C1207      C1208   1.209       .  T
C1208      C1209   1.444       .  S
C1209      C1210   1.401       .  A
C1209      C1214   1.401       .  A
C1210      C1211   1.400   1_556  A
C1210      H1219   1.083       .  S
C1211      C1212   1.406       .  A
C1211      H1220   1.082       .  S
C1212      C1213   1.406       .  A
C1213      C1214   1.400   1_554  A
C1213      H1221   1.082       .  S
C1214      H1222   1.083       .  S
C1223      C1224   1.407       .  A
C1223      C1228   1.406       .  A
C1224      C1225   1.402       .  A
C1224      H1237   1.082       .  S
C1225      C1226   1.402       .  A
C1225      H1238   1.083       .  S
C1226      C1227   1.401       .  A
C1226      C1229   1.446       .  S
C1227      C1228   1.400       .  A
C1227      H1239   1.083       .  S
C1228      H1240   1.082       .  S
C1229      C1230   1.210       .  T
C1230      C1231   1.446       .  S
C1231      C1232   1.400       .  A
C1231      C1236   1.403       .  A
C1232      C1233   1.399   1_556  A
C1232      H1241   1.083       .  S
C1233      C1234   1.406       .  A
C1233      H1242   1.083       .  S
C1234      C1235   1.405       .  A
C1235      C1236   1.403   1_554  A
C1235      H1243   1.082       .  S
C1236      H1244   1.083       .  S
C1245      C1246   1.405       .  A
C1245      C1250   1.405       .  A
C1246      C1247   1.401       .  A
C1246      H1259   1.083       .  S
C1247      C1248   1.402       .  A
C1247      H1260   1.083       .  S
C1248      C1249   1.402       .  A
C1248      C1251   1.447       .  S
C1249      C1250   1.401       .  A
C1249      H1261   1.083       .  S
C1250      H1262   1.083       .  S
C1251      C1252   1.210       .  T
C1252      C1253   1.447       .  S
C1253      C1254   1.401       .  A
C1253      C1258   1.402       .  A
C1254      C1255   1.400   1_556  A
C1254      H1263   1.083       .  S
C1255      C1256   1.406       .  A
C1255      H1264   1.082       .  S
C1256      C1257   1.406       .  A
C1257      C1258   1.402   1_554  A
C1257      H1265   1.082       .  S
C1258      H1266   1.083       .  S
C1267      C1268   1.406       .  A
C1267      C1272   1.406       .  A
C1268      C1269   1.399       .  A
C1268      H1281   1.082       .  S
C1269      C1270   1.400       .  A
C1269      H1282   1.083       .  S
C1270      C1271   1.402       .  A
C1270      C1273   1.445       .  S
C1271      C1272   1.402       .  A
C1271      H1283   1.083       .  S
C1272      H1284   1.082       .  S
C1273      C1274   1.209       .  T
C1274      C1275   1.444       .  S
C1275      C1276   1.401       .  A
C1275      C1280   1.401       .  A
C1276      C1277   1.401   1_556  A
C1276      H1285   1.083       .  S
C1277      C1278   1.406       .  A
C1277      H1286   1.082       .  S
C1278      C1279   1.405       .  A
C1279      C1280   1.399   1_554  A
C1279      H1287   1.082       .  S
C1280      H1288   1.083       .  S
C1289      C1290   1.409       .  A
C1289      C1294   1.409       .  A
C1290      C1291   1.401       .  A
C1290      H1303   1.081       .  S
C1291      C1292   1.400       .  A
C1291      H1304   1.083       .  S
C1292      C1293   1.401       .  A
C1292      C1295   1.448       .  S
C1293      C1294   1.403       .  A
C1293      H1305   1.083       .  S
C1294      H1306   1.082       .  S
C1295      C1296   1.211       .  T
C1296      C1297   1.448       .  S
C1297      C1298   1.400       .  A
C1297      C1302   1.400       .  A
C1298      C1299   1.401       .  A
C1298      H1307   1.083       .  S
C1299      C1300   1.409       .  A
C1299      H1308   1.081       .  S
C1300      C1301   1.410       .  A
C1301      C1302   1.402       .  A
C1301      H1309   1.081       .  S
C1302      H1310   1.083       .  S
C1311      C1312   1.410       .  A
C1311      C1316   1.407       .  A
C1312      C1313   1.398       .  A
C1312      H1325   1.081       .  S
C1313      C1314   1.398       .  A
C1313      H1326   1.084       .  S
C1314      C1315   1.400       .  A
C1314      C1317   1.441       .  S
C1315      C1316   1.400       .  A
C1315      H1327   1.083       .  S
C1316      H1328   1.082       .  S
C1317      C1318   1.207       .  T
C1318      C1319   1.441       .  S
C1319      C1320   1.404       .  A
C1319      C1324   1.398       .  A
C1320      C1321   1.404       .  A
C1320      H1329   1.083       .  S
C1321      C1322   1.404       .  A
C1321      H1330   1.083       .  S
C1322      C1323   1.403       .  A
C1323      C1324   1.394       .  A
C1323      H1331   1.084       .  S
C1324      H1332   1.084       .  S
C1333      C1334   1.408       .  A
C1333      C1338   1.407       .  A
C1334      C1335   1.397       .  A
C1334      H1347   1.082       .  S
C1335      C1336   1.398       .  A
C1335      H1348   1.084       .  S
C1336      C1337   1.401       .  A
C1336      C1339   1.441       .  S
C1337      C1338   1.401       .  A
C1337      H1349   1.083       .  S
C1338      H1350   1.082       .  S
C1339      C1340   1.207       .  T
C1340      C1341   1.441       .  S
C1341      C1342   1.399       .  A
C1341      C1346   1.403       .  A
C1342      C1343   1.396       .  A
C1342      H1351   1.084       .  S
C1343      C1344   1.405       .  A
C1343      H1352   1.083       .  S
C1344      C1345   1.404       .  A
C1345      C1346   1.401       .  A
C1345      H1353   1.083       .  S
C1346      H1354   1.083       .  S
C1355      C1356   1.409       .  A
C1355      C1360   1.410       .  A
C1356      C1357   1.403       .  A
C1356      H1369   1.082       .  S
C1357      C1358   1.401       .  A
C1357      H1370   1.083       .  S
C1358      C1359   1.401       .  A
C1358      C1361   1.451       .  S
C1359      C1360   1.403       .  A
C1359      H1371   1.083       .  S
C1360      H1372   1.081       .  S
C1361      C1362   1.213       .  T
C1362      C1363   1.451       .  S
C1363      C1364   1.401       .  A
C1363      C1368   1.401       .  A
C1364      C1365   1.403       .  A
C1364      H1373   1.083       .  S
C1365      C1366   1.411       .  A
C1365      H1374   1.081       .  S
C1366      C1367   1.410       .  A
C1367      C1368   1.403       .  A
C1367      H1375   1.081       .  S
C1368      H1376   1.083       .  S
C1377      C1378   1.406       .  A
C1377      C1382   1.407       .  A
C1378      C1379   1.404       .  A
C1378      H1391   1.082       .  S
C1379      C1380   1.403       .  A
C1379      H1392   1.083       .  S
C1380      C1381   1.398       .  A
C1380      C1383   1.445       .  S
C1381      C1382   1.397       .  A
C1381      H1393   1.084       .  S
C1382      H1394   1.083       .  S
C1383      C1384   1.209       .  T
C1384      C1385   1.445       .  S
C1385      C1386   1.401       .  A
C1385      C1390   1.398       .  A
C1386      C1387   1.402       .  A
C1386      H1395   1.083       .  S
C1387      C1388   1.408       .  A
C1387      H1396   1.081       .  S
C1388      C1389   1.411       .  A
C1389      C1390   1.400       .  A
C1389      H1397   1.081       .  S
C1390      H1398   1.084       .  S
C1399      C1400   1.405       .  A
C1399      C1404   1.404       .  A
C1400      C1401   1.405       .  A
C1400      H1413   1.083       .  S
C1401      C1402   1.404       .  A
C1401      H1414   1.083       .  S
C1402      C1403   1.399       .  A
C1402      C1405   1.444       .  S
C1403      C1404   1.395       .  A
C1403      H1415   1.084       .  S
C1404      H1416   1.084       .  S
C1405      C1406   1.209       .  T
C1406      C1407   1.445       .  S
C1407      C1408   1.398       .  A
C1407      C1412   1.401       .  A
C1408      C1409   1.399       .  A
C1408      H1417   1.084       .  S
C1409      C1410   1.411       .  A
C1409      H1418   1.080       .  S
C1410      C1411   1.409       .  A
C1411      C1412   1.402       .  A
C1411      H1419   1.081       .  S
C1412      H1420   1.083       .  S
C1421      C1422   1.410       .  A
C1421      C1426   1.410       .  A
C1422      C1423   1.403       .  A
C1422      H1435   1.081       .  S
C1423      C1424   1.401       .  A
C1423      H1436   1.083       .  S
C1424      C1425   1.399       .  A
C1424      C1427   1.447       .  S
C1425      C1426   1.400       .  A
C1425      H1437   1.083       .  S
C1426      H1438   1.081       .  S
C1427      C1428   1.210       .  T
C1428      C1429   1.447       .  S
C1429      C1430   1.401       .  A
C1429      C1434   1.399       .  A
C1430      C1431   1.402       .  A
C1430      H1439   1.083       .  S
C1431      C1432   1.410       .  A
C1431      H1440   1.081       .  S
C1432      C1433   1.409       .  A
C1433      C1434   1.400       .  A
C1433      H1441   1.081       .  S
C1434      H1442   1.084       .  S
C1443      C1444   1.406       .  A
C1443      C1448   1.406       .  A
C1444      C1445   1.395       .  A
C1444      H1457   1.083       .  S
C1445      C1446   1.398       .  A
C1445      H1458   1.084       .  S
C1446      C1447   1.405       .  A
C1446      C1449   1.447       .  S
C1447      C1448   1.406       .  A
C1447      H1459   1.083       .  S
C1448      H1460   1.083       .  S
C1449      C1450   1.211       .  T
C1450      C1451   1.448       .  S
C1451      C1452   1.403       .  A
C1451      C1456   1.398       .  A
C1452      C1453   1.404       .  A
C1452      H1461   1.083       .  S
C1453      C1454   1.408       .  A
C1453      H1462   1.082       .  S
C1454      C1455   1.411       .  A
C1455      C1456   1.400       .  A
C1455      H1463   1.081       .  S
C1456      H1464   1.084       .  S
C1465      C1466   1.405       .  A
C1465      C1470   1.406       .  A
C1466      C1467   1.395       .  A
C1466      H1479   1.083       .  S
C1467      C1468   1.398       .  A
C1467      H1480   1.084       .  S
C1468      C1469   1.404       .  A
C1468      C1471   1.444       .  S
C1469      C1470   1.405       .  A
C1469      H1481   1.083       .  S
C1470      H1482   1.083       .  S
C1471      C1472   1.209       .  T
C1472      C1473   1.445       .  S
C1473      C1474   1.402       .  A
C1473      C1478   1.399       .  A
C1474      C1475   1.402       .  A
C1474      H1483   1.083       .  S
C1475      C1476   1.407       .  A
C1475      H1484   1.082       .  S
C1476      C1477   1.409       .  A
C1477      C1478   1.399       .  A
C1477      H1485   1.082       .  S
C1478      H1486   1.083       .  S
C1487      C1488   1.410       .  A
C1487      C1492   1.410       .  A
C1488      C1489   1.402       .  A
C1488      H1501   1.081       .  S
C1489      C1490   1.400       .  A
C1489      H1502   1.083       .  S
C1490      C1491   1.401       .  A
C1490      C1493   1.450       .  S
C1491      C1492   1.402       .  A
C1491      H1503   1.083       .  S
C1492      H1504   1.081       .  S
C1493      C1494   1.212       .  T
C1494      C1495   1.450       .  S
C1495      C1496   1.401       .  A
C1495      C1500   1.401       .  A
C1496      C1497   1.403       .  A
C1496      H1505   1.083       .  S
C1497      C1498   1.410       .  A
C1497      H1506   1.081       .  S
C1498      C1499   1.410       .  A
C1499      C1500   1.403       .  A
C1499      H1507   1.081       .  S
C1500      H1508   1.083       .  S
C1509      C1510   1.411       .  A
C1509      C1514   1.407       .  A
C1510      C1511   1.400       .  A
C1510      H1523   1.081       .  S
C1511      C1512   1.399       .  A
C1511      H1524   1.084       .  S
C1512      C1513   1.402       .  A
C1512      C1515   1.447       .  S
C1513      C1514   1.402       .  A
C1513      H1525   1.083       .  S
C1514      H1526   1.082       .  S
C1515      C1516   1.210       .  T
C1516      C1517   1.446       .  S
C1517      C1518   1.399       .  A
C1517      C1522   1.404       .  A
C1518      C1519   1.397       .  A
C1518      H1527   1.084       .  S
C1519      C1520   1.406       .  A
C1519      H1528   1.083       .  S
C1520      C1521   1.405       .  A
C1521      C1522   1.404       .  A
C1521      H1529   1.083       .  S
C1522      H1530   1.083       .  S
C1531      C1532   1.408       .  A
C1531      C1536   1.410       .  A
C1532      C1533   1.401       .  A
C1532      H1545   1.082       .  S
C1533      C1534   1.401       .  A
C1533      H1546   1.084       .  S
C1534      C1535   1.397       .  A
C1534      C1537   1.442       .  S
C1535      C1536   1.398       .  A
C1535      H1547   1.084       .  S
C1536      H1548   1.081       .  S
C1537      C1538   1.207       .  T
C1538      C1539   1.441       .  S
C1539      C1540   1.403       .  A
C1539      C1544   1.398       .  A
C1540      C1541   1.402       .  A
C1540      H1549   1.083       .  S
C1541      C1542   1.405       .  A
C1541      H1550   1.083       .  S
C1542      C1543   1.404       .  A
C1543      C1544   1.395       .  A
C1543      H1551   1.083       .  S
C1544      H1552   1.084       .  S
