geometry optimzed in LAMMPS
_audit_creation_date              2020-12-01 
_audit_creation_method            'lammps2cif' 
_symmetry_space_group_name_H-M    'P1' 
_symmetry_Int_Tables_number       1 
_symmetry_cell_setting            triclinic 
loop_ 
_symmetry_equiv_pos_as_xyz 
  x,y,z 
_cell_length_a                    41.3417099 
_cell_length_b                    41.36639678602459 
_cell_length_c                    71.95993622908772 
_cell_angle_alpha                 89.93445229006772 
_cell_angle_beta                  90.14007380214308 
_cell_angle_gamma                 120.47237064817129 
loop_ 
_atom_site_label 
_atom_site_type_symbol 
_atom_site_fract_x 
_atom_site_fract_y 
_atom_site_fract_z 
_atom_site_charge 
C1          C  0.27398920  0.17997238  0.31947861     0.79500
N2          N  0.23653575  0.15765712  0.31628731    -0.78800
C3          C  0.21617259  0.12430355  0.32516735     0.82000
N4          N  0.23363408  0.11388957  0.33775950    -0.78700
C5          C  0.27091963  0.13574280  0.34120750     0.82000
N6          N  0.29132061  0.16867238  0.33185246    -0.80500
In7        In  0.34476543  0.03646458  0.42027788     1.36900
C8          C  0.30318799  0.97520505  0.44071864     0.76900
O9          O  0.34589834  0.99879007  0.39845059    -0.61600
O10         O  0.39740178  0.03579474  0.41167475    -0.52500
C11         C  0.32438158  0.06912294  0.39455564     0.69500
O12         O  0.30127255  0.04407900  0.40543435    -0.47300
C13         C  0.36836357  0.09004755  0.44608333     0.74200
O14         O  0.29053581  0.98280098  0.42642065    -0.59200
O15         O  0.38986180  0.08021700  0.43876292    -0.49300
O16         O  0.33677599  0.99902800  0.44455075    -0.55600
C17         C  0.38024422  0.00953276  0.40003187     0.84400
O18         O  0.35800605  0.07737148  0.39681877    -0.57500
O19         O  0.33504165  0.07229521  0.44021186    -0.60800
C20         C  0.42715017  0.25792097  0.51786956     0.79500
N21         N  0.46532602  0.27673908  0.51819101    -0.78800
C22         C  0.48498422  0.26326062  0.50934117     0.82000
N23         N  0.46608956  0.23018501  0.50020216    -0.78700
C24         C  0.42807453  0.21078632  0.49960346     0.82000
N25         N  0.40864993  0.22475752  0.50845304    -0.80500
C26         C  0.70587236  0.39444558  0.51963981     0.02400
C27         C  0.66659682  0.37558478  0.51897560    -0.13700
C28         C  0.64564592  0.33632664  0.51874046    -0.00100
C29         C  0.66412512  0.31582199  0.51906121    -0.12300
C30         C  0.70338571  0.33448340  0.51954796     0.02400
C31         C  0.72422821  0.37378918  0.51989826    -0.11700
H32         H  0.65233922  0.39148867  0.51829712     0.08000
H33         H  0.64802315  0.28544257  0.51850673     0.05500
H34         H  0.75463079  0.38823194  0.51989544     0.05400
C35         C  0.91883092  0.75806959  0.31606619     0.79500
N36         N  0.88648767  0.73983411  0.32623464    -0.78800
C37         C  0.87236818  0.75958727  0.33471107     0.82000
N38         N  0.89088855  0.79735702  0.33273304    -0.78700
C39         C  0.92302803  0.81592243  0.32292224     0.82000
N40         N  0.93679701  0.79613695  0.31441074    -0.80500
In41       In  0.70788220  0.69038018  0.41939525     1.36900
C42         C  0.64663899  0.64675782  0.39944418     0.76900
O43         O  0.66883240  0.69070339  0.44046695    -0.61600
O44         O  0.70632121  0.74286217  0.42807019    -0.52500
C45         C  0.73982947  0.67150994  0.44613766     0.69500
O46         O  0.70996768  0.64816733  0.43796426    -0.47300
C47         C  0.75716128  0.71089097  0.39152087     0.74200
O48         O  0.65695658  0.63432603  0.41282654    -0.59200
O49         O  0.75044765  0.73374235  0.39991015    -0.49300
O50         O  0.66776496  0.68126160  0.39625100    -0.55600
C51         C  0.67901994  0.72483275  0.43903512     0.84400
O52         O  0.75440885  0.70471744  0.44016886    -0.57500
O53         O  0.73978101  0.67803864  0.39803926    -0.60800
C54         C  0.84333245  0.61408187  0.52221029     0.79500
N55         N  0.83200410  0.63254421  0.51060681    -0.78800
C56         C  0.79975053  0.61312506  0.50054017     0.82000
N57         N  0.77901238  0.57525138  0.50212597    -0.78700
C58         C  0.79036215  0.55632563  0.51316081     0.82000
N59         N  0.82226693  0.57603682  0.52322329    -0.80500
C60         C  0.85872752  0.11798245  0.31638179     0.79500
N61         N  0.87168716  0.14856320  0.32765683    -0.78800
C62         C  0.90548543  0.16243591  0.33635650     0.82000
N63         N  0.92593569  0.14551062  0.33361983    -0.78700
C64         C  0.91350871  0.11534322  0.32227178     0.82000
N65         N  0.87961533  0.10146393  0.31388802    -0.80500
In66       In  0.99194370  0.33167171  0.41924685     1.36900
C67         C  0.01759314  0.39798397  0.40242687     0.76900
O68         O  0.02572437  0.35165680  0.44561953    -0.61600
O69         O  0.04777970  0.33546738  0.42320585    -0.52500
C70         C  0.93890219  0.30121363  0.44525383     0.69500
O71         O  0.95084676  0.33391075  0.43895289    -0.47300
C72         C  0.96368355  0.27914797  0.39264509     0.74200
O73         O  0.98405129  0.37883320  0.40793194    -0.59200
O74         O  0.98967826  0.28390945  0.40351244    -0.49300
O75         O  0.03701325  0.38296773  0.40529772    -0.55600
C76         C  0.05249303  0.34835273  0.43952360     0.84400
O77         O  0.95418611  0.28444363  0.43817333    -0.57500
O78         O  0.95312733  0.30262403  0.39480400    -0.60800
C79         C  0.78080984  0.19407748  0.52259453     0.79500
N80         N  0.81132869  0.20698306  0.51119428    -0.78800
C81         C  0.82551970  0.24108094  0.50271074     0.82000
N82         N  0.80833931  0.26118737  0.50525478    -0.78700
C83         C  0.77813772  0.24881477  0.51643289     0.82000
N84         N  0.76432297  0.21511627  0.52491199    -0.80500
C85         C  0.99508111  0.97707194  0.31699095     0.02400
C86         C  0.97542609  0.99646464  0.31788626    -0.13700
C87         C  0.99502192  0.03579162  0.31874684    -0.00100
C88         C  0.03439433  0.05560482  0.31872642    -0.12300
C89         C  0.05418773  0.03637171  0.31824741     0.02400
C90         C  0.03442527  0.99712250  0.31710167    -0.11700
H91         H  0.94501174  0.98098290  0.31817118     0.08000
H92         H  0.04962402  0.08596914  0.31954951     0.05500
H93         H  0.04963936  0.98214151  0.31687892     0.05400
C94         C  0.60106160  0.78630351  0.48002165     0.79500
N95         N  0.61668918  0.81161058  0.49417010    -0.78800
C96         C  0.59527705  0.82187877  0.50414057     0.82000
N97         N  0.55849229  0.80705438  0.49967646    -0.78700
C98         C  0.54256827  0.78185882  0.48567906     0.82000
N99         N  0.56394774  0.77134997  0.47610123    -0.80500
In100      In  0.67688375  0.99275018  0.58587288     1.36900
C101        C  0.64183255  0.01820088  0.60729827     0.76900
O102        O  0.66870224  0.95081949  0.60812799    -0.61600
O103        O  0.72419335  0.99335509  0.60162692    -0.52500
C104        C  0.65317486  0.93897729  0.56015597     0.69500
O105        O  0.63094998  0.94334267  0.57048159    -0.47300
C106        C  0.71098366  0.05420806  0.56452064     0.74200
O107        O  0.62430844  0.99294975  0.59523501    -0.59200
O108        O  0.72900063  0.04542377  0.57565582    -0.49300
O109        O  0.67599838  0.02818911  0.60878239    -0.55600
C110        C  0.70330257  0.96485507  0.61138887     0.84400
O111        O  0.68739361  0.96172205  0.56335678    -0.57500
O112        O  0.67635211  0.03068119  0.56391414    -0.60800
C113        C  0.75176617  0.85430541  0.68712857     0.79500
N114        N  0.78913170  0.87362978  0.69072891    -0.78800
C115        C  0.81168985  0.90784280  0.68311331     0.82000
N116        N  0.79630273  0.92279364  0.67179710    -0.78700
C117        C  0.75888364  0.90383392  0.66789843     0.82000
N118        N  0.73655264  0.86933765  0.67565498    -0.80500
C119        C  0.19125044  0.42316428  0.48023178     0.79500
N120        N  0.20265533  0.40813859  0.49373496    -0.78800
C121        C  0.23427643  0.43029238  0.50374068     0.82000
N122        N  0.25369917  0.46789923  0.50055158    -0.78700
C123        C  0.24216642  0.48335406  0.48730190     0.82000
N124        N  0.21113683  0.46073674  0.47704374    -0.80500
In125      In  0.32429059  0.34922158  0.58481707     1.36900
C126        C  0.38549007  0.38714060  0.60585376     0.76900
O127        O  0.29157079  0.35433351  0.60821202    -0.61600
O128        O  0.27767698  0.29963020  0.60009126    -0.52500
C129        C  0.29317038  0.37393562  0.56030183     0.69500
O130        O  0.31881836  0.39536337  0.57139396    -0.47300
C131        C  0.35389761  0.31865806  0.56322770     0.74200
O132        O  0.37356671  0.40326576  0.59529520    -0.59200
O133        O  0.32465596  0.29891694  0.57274602    -0.49300
O134        O  0.36512943  0.35184527  0.60595338    -0.55600
C135        C  0.27123004  0.31962588  0.61099118     0.84400
O136        O  0.28399881  0.33993938  0.56155767    -0.57500
O137        O  0.36667491  0.35350084  0.56421743    -0.60800
C138        C  0.11659920  0.26627464  0.68892622     0.79500
N139        N  0.14250991  0.28025198  0.67507501    -0.78800
C140        C  0.15284405  0.25769495  0.66627853     0.82000
N141        N  0.13744718  0.22126072  0.67166800    -0.78700
C142        C  0.11168860  0.20715406  0.68557421     0.82000
N143        N  0.10115319  0.22973841  0.69385229    -0.80500
C144        C  0.23569813  0.83591059  0.48075676     0.79500
N145        N  0.21063450  0.82444254  0.49497342    -0.78800
C146        C  0.20185728  0.79274106  0.50466395     0.82000
N147        N  0.21836109  0.77274344  0.49976075    -0.78700
C148        C  0.24345088  0.78378530  0.48559584     0.82000
N149        N  0.25214856  0.81570130  0.47627477    -0.80500
In150      In  0.03762051  0.70806084  0.59008958     1.36900
C151        C  0.01058155  0.64832925  0.61259800     0.76900
O152        O  0.07873489  0.74097233  0.61248041    -0.61600
O153        O  0.03811575  0.75572186  0.60521217    -0.52500
C154        C  0.09226607  0.73453389  0.56474396     0.69500
O155        O  0.08158283  0.70430345  0.57347874    -0.47300
C156        C  0.97815669  0.68287140  0.56794468     0.74200
O157        O  0.04043080  0.65999217  0.60337955    -0.59200
O158        O  0.98789610  0.71055700  0.57862773    -0.49300
O159        O  0.99540407  0.66792538  0.61046513    -0.55600
C160        C  0.06565747  0.76219484  0.61542818     0.84400
O161        O  0.07527054  0.75142925  0.56934664    -0.57500
O162        O  0.00000328  0.66999392  0.56799765    -0.60800
C163        C  0.15956786  0.90207700  0.70110904     0.79500
N164        N  0.14861206  0.87671442  0.68700486    -0.78800
C165        C  0.11740096  0.86778482  0.67679581     0.82000
N166        N  0.09812215  0.88561963  0.68038506    -0.78700
C167        C  0.10931194  0.91165513  0.69407417     0.82000
N168        N  0.13989078  0.91962925  0.70447993    -0.80500
C169        C  0.96975237  0.98978143  0.70257917     0.02400
C170        C  0.99026680  0.02915109  0.70147544    -0.13700
C171        C  0.02957853  0.04860833  0.70213885    -0.00100
C172        C  0.04844900  0.02877481  0.70429612    -0.12300
C173        C  0.02836902  0.98958750  0.70536601     0.02400
C174        C  0.98902557  0.97011218  0.70464257    -0.11700
H175        H  0.97575388  0.04445384  0.69906762     0.08000
H176        H  0.07886747  0.04368605  0.70393442     0.05500
H177        H  0.97363823  0.93971335  0.70436840     0.05400
C178        C  0.32317713  0.64377017  0.47462792     0.02400
C179        C  0.36251006  0.66451963  0.47509420    -0.13700
C180        C  0.38160580  0.70385742  0.47503592    -0.00100
C181        C  0.36120676  0.72249206  0.47441118    -0.12300
C182        C  0.32182018  0.70197126  0.47422927     0.02400
C183        C  0.30293825  0.66257607  0.47398955    -0.11700
H184        H  0.37818756  0.65010153  0.47630598     0.08000
H185        H  0.37591044  0.75285212  0.47514640     0.05500
H186        H  0.27253347  0.64660908  0.47433500     0.05400
C187        C  0.93411428  0.51107907  0.65563197     0.79500
N188        N  0.89662588  0.48994912  0.65236366    -0.78800
C189        C  0.87603631  0.45532388  0.65995095     0.82000
N190        N  0.89321183  0.44220076  0.67116891    -0.78700
C191        C  0.93082877  0.46230587  0.67421537     0.82000
N192        N  0.95124788  0.49695764  0.66636987    -0.80500
In193      In  0.02350940  0.37426878  0.74975168     1.36900
C194        C  0.98761436  0.31201586  0.76995534     0.76900
O195        O  0.02343101  0.33916516  0.72636434    -0.61600
O196        O  0.07483600  0.37135443  0.74074568    -0.52500
C197        C  0.99788227  0.40449757  0.72561614     0.69500
O198        O  0.97677674  0.37504785  0.73470827    -0.47300
C199        C  0.04528133  0.42674499  0.77586689     0.74200
O200        O  0.97094715  0.32072707  0.75795545    -0.59200
O201        O  0.06841018  0.42461839  0.76514813    -0.49300
O202        O  0.02174435  0.33635568  0.77221076    -0.55600
C203        C  0.05677713  0.34674114  0.72846106     0.84400
O204        O  0.03250713  0.41828536  0.72870005    -0.57500
O205        O  0.01146400  0.40206164  0.77309064    -0.60800
C206        C  0.09044117  0.58171016  0.85407126     0.79500
N207        N  0.07408538  0.55533923  0.84044000    -0.78800
C208        C  0.09508580  0.54392987  0.83100934     0.82000
N209        N  0.13160983  0.55824562  0.83561888    -0.78700
C210        C  0.14807226  0.58379488  0.84935344     0.82000
N211        N  0.12724157  0.59575957  0.85840120    -0.80500
C212        C  0.50480853  0.93585405  0.85794068     0.79500
N213        N  0.48440105  0.89795232  0.85989175    -0.78800
C214        C  0.45139927  0.87723318  0.85077969     0.82000
N215        N  0.43847765  0.89485276  0.83978663    -0.78700
C216        C  0.45821306  0.93267626  0.83759047     0.82000
N217        N  0.49184694  0.95323481  0.84651622    -0.80500
In218      In  0.36752777  0.01270331  0.75614436     1.36900
C219        C  0.30203969  0.96653347  0.73917169     0.76900
O220        O  0.35166749  0.03551842  0.78060874    -0.61600
O221        O  0.35722866  0.06155560  0.75459794    -0.52500
C222        C  0.39828771  0.98928804  0.78164994     0.69500
O223        O  0.36718684  0.96753739  0.77388722    -0.47300
C224        C  0.42190388  0.03512639  0.73101652     0.74200
O225        O  0.30655338  0.96608238  0.75649276    -0.59200
O226        O  0.41643004  0.05782572  0.74036965    -0.49300
O227        O  0.33135747  0.98933365  0.73060681    -0.55600
C228        C  0.34870206  0.05988251  0.77152671     0.84400
O229        O  0.41336517  0.02297134  0.77645630    -0.57500
O230        O  0.39938218  0.00101067  0.73460641    -0.60800
C231        C  0.57654702  0.08767751  0.65195128     0.79500
N232        N  0.59188930  0.12497319  0.64870453    -0.78800
C233        C  0.58263289  0.14601791  0.65927295     0.82000
N234        N  0.55790644  0.12983685  0.67333779    -0.78700
C235        C  0.54222216  0.09263138  0.67698861     0.82000
N236        N  0.55153700  0.07136264  0.66618023    -0.80500
C237        C  0.44897900  0.52154716  0.85501360     0.79500
N238        N  0.47855350  0.53515283  0.84310721    -0.78800
C239        C  0.49273799  0.57001219  0.83561710     0.82000
N240        N  0.47687334  0.59078842  0.84017874    -0.78700
C241        C  0.44755706  0.57757317  0.85215236     0.82000
N242        N  0.43348956  0.54269394  0.85932549    -0.80500
In243      In  0.66227625  0.65899242  0.75300247     1.36900
C244        C  0.68515446  0.72041140  0.73196932     0.76900
O245        O  0.70017127  0.68935755  0.77740024    -0.61600
O246        O  0.71576358  0.65902277  0.75950004    -0.52500
C247        C  0.60777156  0.63003693  0.77838848     0.69500
O248        O  0.61809413  0.66082353  0.77025959    -0.47300
C249        C  0.63178105  0.60488521  0.72714467     0.74200
O250        O  0.65859240  0.70936320  0.74344947    -0.59200
O251        O  0.65906057  0.61045940  0.73729891    -0.49300
O252        O  0.69980253  0.70013842  0.73156450    -0.55600
C253        C  0.72375401  0.67954512  0.77370602     0.84400
O254        O  0.62591963  0.61436739  0.77368429    -0.57500
O255        O  0.62003262  0.62713329  0.73031842    -0.60800
C256        C  0.52586129  0.45442777  0.64616533     0.79500
N257        N  0.53964143  0.48340348  0.65850283    -0.78800
C258        C  0.57325855  0.49510872  0.66707054     0.82000
N259        N  0.59233278  0.47710449  0.66326933    -0.78700
C260        C  0.57885768  0.44816964  0.65102707     0.82000
N261        N  0.54539837  0.43681920  0.64266574    -0.80500
C262        C  0.71560454  0.36644868  0.64807439     0.02400
C263        C  0.69657579  0.32716868  0.64851433    -0.13700
C264        C  0.65713677  0.30612881  0.64784346    -0.00100
C265        C  0.63688534  0.32501492  0.64675792    -0.12300
C266        C  0.65587957  0.36434796  0.64608135     0.02400
C267        C  0.69520664  0.38483964  0.64635216    -0.11700
H268        H  0.71250709  0.31304502  0.64993250     0.08000
H269        H  0.60649889  0.30929845  0.64728437     0.05500
H270        H  0.70985865  0.41524094  0.64639713     0.05400
C271        C  0.36771127  0.71661716  0.86146086     0.02400
C272        C  0.32844752  0.69642806  0.86150241    -0.13700
C273        C  0.30860613  0.65716307  0.86311658    -0.00100
C274        C  0.32891372  0.63821380  0.86367034    -0.12300
C275        C  0.36821338  0.65817622  0.86232511     0.02400
C276        C  0.38752936  0.69746082  0.86185896    -0.11700
H277        H  0.31344299  0.71142623  0.85988953     0.08000
H278        H  0.31415776  0.60785185  0.86423753     0.05500
H279        H  0.41789614  0.71303994  0.86094870     0.05400
C280        C  0.43030607  0.19180638  0.01759516     0.79500
N281        N  0.41292110  0.20486845  0.00631772    -0.78800
C282        C  0.43336817  0.23858166  0.99759753     0.82000
N283        N  0.47109590  0.25879371  0.00027521    -0.78700
C284        C  0.48875481  0.24600362  0.01134483     0.82000
N285        N  0.46807585  0.21256249  0.02008134    -0.80500
In286      In  0.34394439  0.32181333  0.91712698     1.36900
C287        C  0.38074149  0.38205744  0.89560072     0.76900
O288        O  0.35250518  0.29149768  0.89345407    -0.61600
O289        O  0.29694932  0.27107047  0.90278548    -0.52500
C290        C  0.37166816  0.29556517  0.94266891     0.69500
O291        O  0.39182564  0.32463180  0.93319510    -0.47300
C292        C  0.30943730  0.34981100  0.93727941     0.74200
O293        O  0.39728492  0.37028599  0.90594863    -0.59200
O294        O  0.29171117  0.32172906  0.92674465    -0.49300
O295        O  0.34541289  0.36191173  0.89588640    -0.55600
C296        C  0.31824879  0.26732222  0.89153876     0.84400
O297        O  0.33700114  0.28042652  0.93941430    -0.57500
O298        O  0.34419012  0.36188256  0.93799077    -0.60800
C299        C  0.26976926  0.12510032  0.80679616     0.79500
N300        N  0.23225773  0.10735304  0.80340589    -0.78800
C301        C  0.20957464  0.11524173  0.81364132     0.82000
N302        N  0.22467254  0.14131820  0.82737832    -0.78700
C303        C  0.26212521  0.15942416  0.83097555     0.82000
N304        N  0.28448068  0.15078983  0.82079994    -0.80500
C305        C  0.84066131  0.24802660  0.02161731     0.79500
N306        N  0.82045026  0.26514030  0.02459382    -0.78800
C307        C  0.78776129  0.25402157  0.01553655     0.82000
N308        N  0.77550660  0.22592195  0.00292998    -0.78700
C309        C  0.79465512  0.20779781  0.99983854     0.82000
N310        N  0.82745358  0.21904299  0.00923001    -0.80500
In311      In  0.71283267  0.04027404  0.91619900     1.36900
C312        C  0.69350569  0.97951852  0.93688699     0.76900
O313        O  0.75738520  0.07777913  0.93664722    -0.61600
O314        O  0.71087219  0.08551756  0.93260426    -0.52500
C315        C  0.76549551  0.07152391  0.88999770     0.69500
O316        O  0.76410256  0.04767555  0.90145534    -0.47300
C317        C  0.64819013  0.01040263  0.89705138     0.74200
O318        O  0.71121867  0.98568589  0.92181335    -0.59200
O319        O  0.65703207  0.03593065  0.90902045    -0.49300
O320        O  0.68714588  0.00503782  0.94164557    -0.55600
C321        C  0.74142664  0.09579011  0.94109024     0.84400
O322        O  0.74036002  0.07987407  0.89229583    -0.57500
O323        O  0.67319303  0.00209262  0.89448438    -0.60800
C324        C  0.91456095  0.16880829  0.80807039     0.79500
N325        N  0.88984902  0.16024963  0.82228743    -0.78800
C326        C  0.87771309  0.12788907  0.83201787     0.82000
N327        N  0.89008800  0.10420873  0.82730521    -0.78700
C328        C  0.91424942  0.11202794  0.81298828     0.82000
N329        N  0.92662919  0.14474422  0.80362794    -0.80500
C330        C  0.99251295  0.97072574  0.80063595     0.02400
C331        C  0.03176208  0.99257596  0.80099666    -0.13700
C332        C  0.04967565  0.03175098  0.80011490    -0.00100
C333        C  0.02813812  0.04914696  0.79904522    -0.12300
C334        C  0.98872570  0.02756747  0.79834032     0.02400
C335        C  0.97113187  0.98819899  0.79884051    -0.11700
H336        H  0.04830078  0.97918046  0.80282591     0.08000
H337        H  0.04206257  0.07947335  0.79961468     0.05500
H338        H  0.94077124  0.97123132  0.79896996     0.05400
C339        C  0.78915604  0.61093752  0.02216619     0.79500
N340        N  0.81998078  0.62860869  0.01108523    -0.78800
C341        C  0.83224377  0.60830180  0.00167503     0.82000
N342        N  0.81379092  0.57042988  0.00367594    -0.78700
C343        C  0.78279348  0.55255553  0.01451239     0.82000
N344        N  0.77058606  0.57298540  0.02369021    -0.80500
In345      In  0.00030875  0.68646222  0.91944763     1.36900
C346        C  0.06269630  0.72681514  0.93911901     0.76900
O347        O  0.96658218  0.69782613  0.94011515    -0.61600
O348        O  0.95888385  0.64302958  0.93903679    -0.52500
C349        C  0.96900382  0.70823925  0.89371105     0.69500
O350        O  0.99841343  0.73087861  0.90246973    -0.47300
C351        C  0.02208841  0.64804177  0.89804822     0.74200
O352        O  0.05390445  0.74043312  0.92566932    -0.59200
O353        O  0.99667262  0.63232241  0.91014309    -0.49300
O354        O  0.03953967  0.69288842  0.94253455    -0.55600
C355        C  0.95038960  0.66511277  0.94680612     0.84400
O356        O  0.95514540  0.67433084  0.89840287    -0.57500
O357        O  0.03582205  0.68299781  0.89716876    -0.60800
C358        C  0.86529014  0.75135583  0.81232039     0.79500
N359        N  0.87852200  0.73780037  0.82574173    -0.78800
C360        C  0.91223523  0.76086988  0.83407076     0.82000
N361        N  0.93174638  0.79778649  0.82923139    -0.78700
C362        C  0.91882871  0.81148779  0.81576336     0.82000
N363        N  0.88550786  0.78806555  0.80743505    -0.80500
C364        C  0.64881883  0.33277752  0.02429421     0.02400
C365        C  0.66832895  0.37208826  0.02476861    -0.13700
C366        C  0.70766069  0.39230711  0.02502395    -0.00100
C367        C  0.72749861  0.37313754  0.02489902    -0.12300
C368        C  0.70810832  0.33390456  0.02422128     0.02400
C369        C  0.66881390  0.31377008  0.02404450    -0.11700
H370        H  0.65297791  0.38691896  0.02422176     0.08000
H371        H  0.75790929  0.38873222  0.02446007     0.05500
H372        H  0.65386845  0.28344517  0.02293207     0.05400
C373        C  0.52896554  0.10172891  0.15133395     0.79500
N374        N  0.54218611  0.08586918  0.16348393    -0.78800
C375        C  0.57511385  0.10773062  0.17269967     0.82000
N376        N  0.59435948  0.14534409  0.16968931    -0.78700
C377        C  0.58136099  0.16140712  0.15763364     0.82000
N378        N  0.54871080  0.13935567  0.14844398    -0.80500
In379      In  0.65816822  0.01811274  0.25326900     1.36900
C380        C  0.68061359  0.98028991  0.23186964     0.76900
O381        O  0.62006588  0.01279656  0.22967326    -0.61600
O382        O  0.65876278  0.06733681  0.23946367    -0.52500
C383        C  0.60591562  0.99453753  0.28008711     0.69500
O384        O  0.61495537  0.97308921  0.27205593    -0.47300
C385        C  0.71998698  0.05339120  0.27426223     0.74200
O386        O  0.64811465  0.96454070  0.23888990    -0.59200
O387        O  0.71267913  0.06958936  0.26142229    -0.49300
O388        O  0.70030250  0.01482124  0.23528369    -0.55600
C389        C  0.63251702  0.04753491  0.22826188     0.84400
O390        O  0.62331958  0.02779990  0.27419306    -0.57500
O391        O  0.69518489  0.01934097  0.27637094    -0.60800
C392        C  0.45174584  0.93971438  0.36002828     0.79500
N393        N  0.43469456  0.90179294  0.36211341    -0.78800
C394        C  0.44741331  0.88179733  0.35295221     0.82000
N395        N  0.47783303  0.90009749  0.34187447    -0.78700
C396        C  0.49564990  0.93779421  0.33957879     0.82000
N397        N  0.48206989  0.95765633  0.34847377    -0.80500
C398        C  0.66807926  0.32017206  0.14195256     0.02400
C399        C  0.70735912  0.33857783  0.14132983    -0.13700
C400        C  0.72879654  0.37785776  0.14169846    -0.00100
C401        C  0.71056040  0.39875025  0.14228054    -0.12300
C402        C  0.67121530  0.38042369  0.14307419     0.02400
C403        C  0.65012611  0.34113418  0.14259872    -0.11700
H404        H  0.72125262  0.32231259  0.14171032     0.08000
H405        H  0.72698221  0.42907265  0.14318813     0.05500
H406        H  0.61981557  0.32685340  0.14375868     0.05400
C407        C  0.58787960  0.51585387  0.14913854     0.79500
N408        N  0.60534625  0.49619755  0.14567625    -0.78800
C409        C  0.59243904  0.46168736  0.15306945     0.82000
N410        N  0.56214752  0.44725215  0.16444306    -0.78700
C411        C  0.54381205  0.46610198  0.16791799     0.82000
N412        N  0.55689360  0.50069028  0.16020578    -0.80500
In413      In  0.37760955  0.37373475  0.25154068     1.36900
C414        C  0.31821655  0.34470490  0.22877052     0.76900
O415        O  0.41108058  0.41947670  0.23110561    -0.61600
O416        O  0.42317446  0.37547790  0.23388449    -0.52500
C417        C  0.40708420  0.42577689  0.27795105     0.69500
O418        O  0.37721614  0.41806304  0.26935285    -0.47300
C419        C  0.35153722  0.31491012  0.27443539     0.74200
O420        O  0.32593345  0.37220646  0.23934517    -0.59200
O421        O  0.37899329  0.32373998  0.26366990    -0.49300
O422        O  0.34174004  0.33393689  0.22953505    -0.55600
C423        C  0.43041065  0.40553386  0.22567944     0.84400
O424        O  0.42221600  0.40746294  0.27262197    -0.57500
O425        O  0.33833682  0.33644346  0.27331874    -0.60800
C426        C  0.50629265  0.57274351  0.36031940     0.79500
N427        N  0.48737875  0.59145002  0.36253501    -0.78800
C428        C  0.45530661  0.58092583  0.35282983     0.82000
N429        N  0.44195107  0.55091029  0.34131815    -0.78700
C430        C  0.46043550  0.53193542  0.33891335     0.82000
N431        N  0.49323142  0.54346802  0.34820909    -0.80500
C432        C  0.94688412  0.44767141  0.14841251     0.79500
N433        N  0.96397177  0.47715405  0.16048011    -0.78800
C434        C  0.94379497  0.49087225  0.16884576     0.82000
N435        N  0.90685231  0.47541879  0.16453036    -0.78700
C436        C  0.88965376  0.44676527  0.15223572     0.82000
N437        N  0.90979556  0.43272588  0.14439537    -0.80500
In438      In  0.02069415  0.66205248  0.25114425     1.36900
C439        C  0.98445514  0.68641100  0.27287857     0.76900
O440        O  0.01168100  0.62067346  0.27370376    -0.61600
O441        O  0.06766658  0.66179021  0.26684056    -0.52500
C442        C  0.99783841  0.60933243  0.22463096     0.69500
O443        O  0.97596564  0.61781072  0.23266531    -0.47300
C444        C  0.05501699  0.72243854  0.22913642     0.74200
O445        O  0.96743403  0.65667397  0.26334042    -0.59200
O446        O  0.07297925  0.71405938  0.24051483    -0.49300
O447        O  0.01971521  0.70258274  0.27153951    -0.55600
C448        C  0.04620039  0.63361290  0.27667392     0.84400
O449        O  0.03106993  0.62699239  0.23064643    -0.57500
O450        O  0.02018925  0.69937473  0.22900298    -0.60800
C451        C  0.09502890  0.53224422  0.35777607     0.79500
N452        N  0.13300012  0.55055800  0.35971565    -0.78800
C453        C  0.15555994  0.58025009  0.34879839     0.82000
N454        N  0.14003165  0.59224660  0.33591518    -0.78700
C455        C  0.10215751  0.57489918  0.33388308     0.82000
N456        N  0.07976307  0.54473107  0.34482017    -0.80500
C457        C  0.31628362  0.66106409  0.35868413     0.02400
C458        C  0.33559633  0.70028115  0.35999600    -0.13700
C459        C  0.37494437  0.72063821  0.36080948    -0.00100
C460        C  0.39490916  0.70147803  0.36071110    -0.12300
C461        C  0.37564798  0.66214226  0.35971346     0.02400
C462        C  0.33637379  0.64215442  0.35843212    -0.11700
H463        H  0.32011813  0.71499487  0.35969865     0.08000
H464        H  0.42532237  0.71715645  0.36094089     0.05500
H465        H  0.32142439  0.61185378  0.35717811     0.05400
C466        C  0.24935578  0.42906103  0.97775823     0.79500
N467        N  0.26819467  0.46707999  0.97611588    -0.78800
C468        C  0.25580047  0.48775142  0.98495916     0.82000
N469        N  0.22406330  0.46987874  0.99523322    -0.78700
C470        C  0.20474052  0.43202570  0.99698275     0.82000
N471        N  0.21765394  0.41156559  0.98827420    -0.80500
In472      In  0.04347601  0.34947367  0.08273452     1.36900
C473        C  0.02147109  0.38463143  0.10623520     0.76900
O474        O  0.99536275  0.34670339  0.06711806    -0.61600
O475        O  0.99707872  0.29643886  0.06930193    -0.52500
C476        C  0.09308366  0.37467019  0.05510470     0.69500
O477        O  0.08751236  0.39644025  0.06514303    -0.47300
C478        C  0.07455461  0.32483353  0.10740422     0.74200
O479        O  0.04549733  0.40184752  0.09361876    -0.59200
O480        O  0.04292710  0.30389614  0.09995688    -0.49300
O481        O  0.01003950  0.34997002  0.10698196    -0.55600
C482        C  0.97964779  0.31221924  0.06351557     0.84400
O483        O  0.07291133  0.34044903  0.05907092    -0.57500
O484        O  0.09070088  0.35839962  0.10186613    -0.60800
C485        C  0.18461959  0.27034710  0.18183530     0.79500
N486        N  0.16384210  0.23242092  0.18384242    -0.78800
C487        C  0.13227150  0.21157907  0.17368602     0.82000
N488        N  0.12112427  0.22910730  0.16161285    -0.78700
C489        C  0.14130919  0.26681062  0.15913522     0.82000
N490        N  0.17326618  0.28756396  0.16934151    -0.80500
C491        C  0.61452287  0.83986225  0.97643941     0.79500
N492        N  0.57673932  0.82160231  0.97376780    -0.78800
C493        C  0.55404699  0.78994104  0.98351564     0.82000
N494        N  0.56932378  0.77620605  0.99558205    -0.78700
C495        C  0.60701621  0.79359727  0.99803669     0.82000
N496        N  0.62956996  0.82603529  0.98870824    -0.80500
In497      In  0.68628477  0.70968115  0.08261985     1.36900
C498        C  0.65122574  0.65224181  0.10605277     0.76900
O499        O  0.68619966  0.66900524  0.06240078    -0.61600
O500        O  0.73911294  0.71183140  0.07207551    -0.52500
C501        C  0.66285277  0.73679315  0.05568654     0.69500
O502        O  0.64080336  0.70727794  0.06453487    -0.47300
C503        C  0.70751899  0.76574209  0.10664724     0.74200
O504        O  0.63396751  0.65980154  0.09387540    -0.59200
O505        O  0.73061892  0.75885059  0.09865484    -0.49300
O506        O  0.68629904  0.67444931  0.10612092    -0.55600
C507        C  0.72128184  0.68347870  0.06165566     0.84400
O508        O  0.69678870  0.75183737  0.06050517    -0.57500
O509        O  0.67360319  0.74336456  0.10258887    -0.60800
C510        C  0.75339683  0.92139622  0.18529163     0.79500
N511        N  0.79140457  0.93966829  0.18740730    -0.78800
C512        C  0.81278102  0.93034552  0.17704926     0.82000
N513        N  0.79592268  0.90198523  0.16466180    -0.78700
C514        C  0.75814777  0.88309277  0.16224035     0.82000
N515        N  0.73680875  0.89292104  0.17260942    -0.80500
C516        C  0.11088155  0.85554216  0.18322228     0.79500
N517        N  0.13946192  0.86910251  0.17064548    -0.78800
C518        C  0.14821872  0.90046273  0.16049496     0.82000
N519        N  0.12846939  0.91812155  0.16332258    -0.78700
C520        C  0.10025545  0.90486916  0.17588908     0.82000
N521        N  0.09174436  0.87382662  0.18586837    -0.80500
In522      In  0.33203581  0.99918180  0.08602549     1.36900
C523        C  0.39303639  0.02549525  0.10740443     0.76900
O524        O  0.37171314  0.03793298  0.06463610    -0.61600
O525        O  0.32940543  0.04835570  0.07404838    -0.52500
C526        C  0.30469644  0.94720735  0.05960397     0.69500
O527        O  0.33193479  0.95289514  0.06986419    -0.47300
C528        C  0.27734803  0.97011610  0.11130176     0.74200
O529        O  0.38157704  0.99641411  0.09754609    -0.59200
O530        O  0.28555330  0.99933567  0.10211132    -0.49300
O531        O  0.37242484  0.03981462  0.10658548    -0.55600
C532        C  0.35749687  0.05859907  0.06359496     0.84400
O533        O  0.29057461  0.96714224  0.06347183    -0.57500
O534        O  0.29744780  0.95607513  0.10762777    -0.60800
C535        C  0.20206833  0.79487921  0.97905613     0.79500
N536        N  0.22116595  0.77642710  0.97683565    -0.78800
C537        C  0.25213097  0.78590469  0.98724523     0.82000
N538        N  0.26408371  0.81440734  0.99959391    -0.78700
C539        C  0.24516032  0.83292710  0.00216194     0.82000
N540        N  0.21392208  0.82291335  0.99180138    -0.80500
C541        C  0.39301283  0.70913918  0.97704870     0.02400
C542        C  0.37289753  0.72792185  0.97821850    -0.13700
C543        C  0.33364083  0.70768944  0.97817806    -0.00100
C544        C  0.31442052  0.66843659  0.97745563    -0.12300
C545        C  0.33437144  0.64932611  0.97659885     0.02400
C546        C  0.37376489  0.66985751  0.97623266    -0.11700
H547        H  0.38779550  0.75826175  0.97922497     0.08000
H548        H  0.28401899  0.65276935  0.97800325     0.05500
H549        H  0.38940315  0.65531200  0.97602038     0.05400
C550        C  0.97292286  0.99811764  0.18669755     0.02400
C551        C  0.99668625  0.03715010  0.18665673    -0.13700
C552        C  0.03576521  0.05288669  0.18716701    -0.00100
C553        C  0.05103513  0.02945260  0.18786356    -0.12300
C554        C  0.02747729  0.99039198  0.18753122     0.02400
C555        C  0.98840874  0.97479825  0.18688592    -0.11700
H556        H  0.98484298  0.05522785  0.18564363     0.08000
H557        H  0.08123472  0.04159266  0.18759127     0.05500
H558        H  0.97013465  0.94462391  0.18615609     0.05400
C559        C  0.27241121  0.76509603  0.98531828    -0.06800
C560        C  0.27334256  0.75052265  0.96780548    -0.18000
C561        C  0.29334825  0.73195698  0.96499133     0.10400
C562        C  0.31283452  0.72768020  0.98001377    -0.06800
C563        C  0.31186773  0.74194052  0.99749162    -0.18000
C564        C  0.29141830  0.75990050  0.00042579     0.10400
S565        S  0.29304165  0.71462113  0.94193570    -0.33000
S566        S  0.28898093  0.77314589  0.02402934    -0.33000
H567        H  0.25041113  0.76082535  0.02319590     0.28400
H568        H  0.32768726  0.71608498  0.94316664     0.28400
H569        H  0.25897110  0.75421975  0.95610615     0.19000
H570        H  0.32630281  0.73800956  0.00909817     0.19000
C571        C  0.25931218  0.86341961  0.01632048    -0.06800
C572        C  0.29729135  0.88017229  0.02159106    -0.18000
C573        C  0.31303975  0.90828432  0.03505405     0.10400
C574        C  0.29028711  0.91957229  0.04424711    -0.06800
C575        C  0.25268750  0.90398376  0.03865956    -0.18000
C576        C  0.23691965  0.87613192  0.02492295     0.10400
S577        S  0.36286780  0.93002727  0.03896917    -0.33000
S578        S  0.18794434  0.85746880  0.01974431    -0.33000
H579        H  0.17861221  0.81988585  0.02187794     0.28400
H580        H  0.36903294  0.96675581  0.03951863     0.28400
H581        H  0.31544528  0.87195680  0.01486464     0.19000
H582        H  0.23503915  0.91280608  0.04542393     0.19000
C583        C  0.07940773  0.92445804  0.17898525    -0.06800
C584        C  0.08326688  0.94188973  0.19620540    -0.18000
C585        C  0.06585280  0.96278462  0.19964936     0.10400
C586        C  0.04391217  0.96618735  0.18556027    -0.06800
C587        C  0.03941007  0.94803725  0.16848797    -0.18000
C588        C  0.05670893  0.92708399  0.16507726     0.10400
S589        S  0.07319164  0.98472828  0.22213552    -0.33000
S590        S  0.04828696  0.90416945  0.14282583    -0.33000
H591        H  0.05163753  0.87376591  0.14904227     0.28400
H592        H  0.03976685  0.98582004  0.22248538     0.28400
H593        H  0.10052631  0.93973857  0.20693891     0.19000
H594        H  0.02265674  0.95066062  0.15762883     0.19000
C595        C  0.18022715  0.91666957  0.14714233    -0.06800
C596        C  0.21129285  0.91236211  0.15071650    -0.18000
C597        C  0.24386039  0.93044368  0.13979755     0.10400
C598        C  0.24547813  0.95285125  0.12453875    -0.06800
C599        C  0.21452797  0.95709505  0.12094075    -0.18000
C600        C  0.18197242  0.93893001  0.13170855     0.10400
S601        S  0.28306963  0.92560593  0.14681072    -0.33000
S602        S  0.14306488  0.94363512  0.12403538    -0.33000
H603        H  0.11655821  0.90545277  0.12680079     0.28400
H604        H  0.31033745  0.96309890  0.14294199     0.28400
H605        H  0.21088918  0.89600387  0.16257735     0.19000
H606        H  0.21505179  0.97357551  0.10909871     0.19000
C607        C  0.85407816  0.95041490  0.17931759    -0.06800
C608        C  0.86944160  0.95819203  0.19732119    -0.18000
C609        C  0.90809794  0.97368550  0.20022789     0.10400
C610        C  0.93201425  0.98170462  0.18477863    -0.06800
C611        C  0.91689300  0.97503671  0.16680914    -0.18000
C612        C  0.87846310  0.96016484  0.16389504     0.10400
S613        S  0.92491050  0.98280194  0.22392105    -0.33000
S614        S  0.86278038  0.95626962  0.14015918    -0.33000
H615        H  0.83444781  0.96459646  0.14404397     0.28400
H616        H  0.95849045  0.98278248  0.22113570     0.28400
H617        H  0.85109274  0.95120173  0.20923896     0.19000
H618        H  0.93536466  0.98216553  0.15492573     0.19000
C619        C  0.71897234  0.79718362  0.11988159    -0.06800
C620        C  0.69543142  0.79266421  0.13497146    -0.18000
C621        C  0.70668099  0.82009382  0.14892999     0.10400
C622        C  0.74202609  0.85347046  0.14762714    -0.06800
C623        C  0.76448880  0.85849662  0.13197248    -0.18000
C624        C  0.75337251  0.83118812  0.11815353     0.10400
S625        S  0.67576125  0.80951334  0.16847214    -0.33000
S626        S  0.78399524  0.84218631  0.09840284    -0.33000
H627        H  0.75479934  0.82514490  0.08527811     0.28400
H628        H  0.70450473  0.82202240  0.18185552     0.28400
H629        H  0.66878063  0.76677831  0.13637871     0.19000
H630        H  0.79116102  0.88422990  0.13035632     0.19000
C631        C  0.43424029  0.73071145  0.97808014    -0.06800
C632        C  0.45089037  0.74266384  0.99559929    -0.18000
C633        C  0.48986237  0.76305837  0.99761379     0.10400
C634        C  0.51292375  0.77129011  0.98178571    -0.06800
C635        C  0.49623670  0.75981931  0.96417706    -0.18000
C636        C  0.45708697  0.73970296  0.96215491     0.10400
S637        S  0.50837200  0.77855417  0.02070123    -0.33000
S638        S  0.43799768  0.72565269  0.93904604    -0.33000
H639        H  0.40461225  0.72596691  0.94215163     0.28400
H640        H  0.53972482  0.81261827  0.01506414     0.28400
H641        H  0.43331491  0.73618541  0.00779991     0.19000
H642        H  0.51378365  0.76602304  0.95199058     0.19000
C643        C  0.62293648  0.77831821  0.01159223    -0.06800
C644        C  0.65430175  0.80347308  0.02216801    -0.18000
C645        C  0.66772443  0.79092186  0.03671537     0.10400
C646        C  0.64989043  0.75211060  0.04072164    -0.06800
C647        C  0.61919938  0.72690333  0.02984892    -0.18000
C648        C  0.60600496  0.73937380  0.01520401     0.10400
S649        S  0.70609248  0.82614568  0.05032332    -0.33000
S650        S  0.56868397  0.70383690  0.00119107    -0.33000
H651        H  0.58258284  0.72314609  0.98430206     0.28400
H652        H  0.69052484  0.80927594  0.06753356     0.28400
H653        H  0.66748529  0.83335964  0.01966251     0.19000
H654        H  0.60591734  0.69703924  0.03247070     0.19000
C655        C  0.10879617  0.17046799  0.17666796    -0.06800
C656        C  0.10763631  0.15592550  0.19451022    -0.18000
C657        C  0.08389632  0.11780867  0.19849923     0.10400
C658        C  0.06063336  0.09351266  0.18435047    -0.06800
C659        C  0.06238297  0.10762438  0.16645511    -0.18000
C660        C  0.08651829  0.14559722  0.16233303     0.10400
S661        S  0.08458074  0.10221973  0.22187428    -0.33000
S662        S  0.09011172  0.16098483  0.13848412    -0.33000
H663        H  0.06410914  0.12603071  0.13075055     0.28400
H664        H  0.04877800  0.06986430  0.22164989     0.28400
H665        H  0.12471032  0.17452552  0.20559425     0.19000
H666        H  0.04521021  0.08842873  0.15558602     0.19000
C667        C  0.09150465  0.31123501  0.12138949    -0.06800
C668        C  0.13085618  0.32927417  0.12295035    -0.18000
C669        C  0.14826288  0.31580754  0.13499507     0.10400
C670        C  0.12596666  0.28404377  0.14623832    -0.06800
C671        C  0.08667068  0.26668196  0.14487688    -0.18000
C672        C  0.06936258  0.27995693  0.13288685     0.10400
S673        S  0.19870162  0.33883633  0.13436029    -0.33000
S674        S  0.01884535  0.25644651  0.13362364    -0.33000
H675        H  0.01756045  0.28979986  0.13321126     0.28400
H676        H  0.19974710  0.30538383  0.13503460     0.28400
H677        H  0.14826434  0.35319620  0.11417556     0.19000
H678        H  0.06896047  0.24266049  0.15353691     0.19000
C679        C  0.31406281  0.60797761  0.97807594    -0.06800
C680        C  0.29368610  0.59170598  0.99434582    -0.18000
C681        C  0.27525922  0.55288425  0.99726772     0.10400
C682        C  0.27646903  0.52935114  0.98327877    -0.06800
C683        C  0.29743484  0.54593551  0.96707202    -0.18000
C684        C  0.31599713  0.58480312  0.96429250     0.10400
S685        S  0.25302499  0.53478493  0.01953346    -0.33000
S686        S  0.34089692  0.60300867  0.94272090    -0.33000
H687        H  0.33454826  0.63327308  0.94138997     0.28400
H688        H  0.25712297  0.56836388  0.02658689     0.28400
H689        H  0.29323306  0.60983967  0.00505656     0.19000
H690        H  0.29870101  0.52844447  0.95623845     0.19000
C691        C  0.17253211  0.41425426  0.01001760    -0.06800
C692        C  0.16846525  0.38480378  0.02137784    -0.18000
C693        C  0.14314431  0.37167609  0.03624796     0.10400
C694        C  0.12082768  0.38793855  0.03985840    -0.06800
C695        C  0.12396084  0.41649820  0.02816459    -0.18000
C696        C  0.14879140  0.42917287  0.01310343     0.10400
S697        S  0.14256103  0.33587336  0.05081709    -0.33000
S698        S  0.14755918  0.46324351  0.99790589    -0.33000
H699        H  0.15579865  0.44991331  0.98166009     0.28400
H700        H  0.13877199  0.35096195  0.06763547     0.28400
H701        H  0.18657559  0.37325194  0.01932298     0.19000
H702        H  0.10615276  0.42832687  0.03046725     0.19000
C703        C  0.27511581  0.63973957  0.35662464    -0.06800
C704        C  0.25998352  0.62775820  0.33879463    -0.18000
C705        C  0.22113995  0.60746571  0.33591006     0.10400
C706        C  0.19670394  0.59959944  0.35112727    -0.06800
C707        C  0.21191180  0.61114147  0.36901462    -0.18000
C708        C  0.25079909  0.63095938  0.37194573     0.10400
S709        S  0.20457352  0.59108653  0.31266383    -0.33000
S710        S  0.26745891  0.64454548  0.39547993    -0.33000
H711        H  0.30216705  0.64648969  0.39334834     0.28400
H712        H  0.17302716  0.55705036  0.31817057     0.28400
H713        H  0.27863345  0.63396062  0.32706075     0.19000
H714        H  0.19334194  0.60501859  0.38077343     0.19000
C715        C  0.06006285  0.61712500  0.29071702    -0.06800
C716        C  0.03863579  0.60090793  0.30680708    -0.18000
C717        C  0.05156051  0.58737090  0.32120044     0.10400
C718        C  0.08628168  0.58863605  0.31933215    -0.06800
C719        C  0.10723286  0.60415479  0.30300710    -0.18000
C720        C  0.09451169  0.61802790  0.28874628     0.10400
S721        S  0.02372445  0.57165243  0.34205162    -0.33000
S722        S  0.12290638  0.63501689  0.26809098    -0.33000
H723        H  0.09227127  0.61890411  0.25571450     0.28400
H724        H  0.05469449  0.58968313  0.35414602     0.28400
H725        H  0.01228397  0.60025680  0.30856908     0.24400
H726        H  0.13363020  0.60494919  0.30114049     0.19000
C727        C  0.07194555  0.75628726  0.21687974    -0.06800
C728        C  0.04757634  0.76034847  0.20470568    -0.18000
C729        C  0.06016556  0.79136671  0.19302358     0.10400
C730        C  0.09831868  0.81984594  0.19325806    -0.06800
C731        C  0.12329794  0.81562616  0.20486615    -0.18000
C732        C  0.11050490  0.78455086  0.21685459     0.10400
S733        S  0.02582986  0.79278349  0.17802781    -0.33000
S734        S  0.14445549  0.78368056  0.23221906    -0.33000
H735        H  0.12357758  0.78010939  0.24830059     0.28400
H736        H  0.05073480  0.81129485  0.16326229     0.28400
H737        H  0.01805437  0.73915137  0.20425024     0.19000
H738        H  0.15254940  0.83759074  0.20531061     0.19000
C739        C  0.96811118  0.43161390  0.13956262    -0.06800
C740        C  0.00290807  0.45567680  0.13118780    -0.18000
C741        C  0.02196105  0.44154707  0.12090171     0.10400
C742        C  0.00574841  0.40227664  0.11859739    -0.06800
C743        C  0.97170053  0.37839492  0.12769328    -0.18000
C744        C  0.95306396  0.39244154  0.13818204     0.10400
S745        S  0.06676325  0.47516500  0.11122879    -0.33000
S746        S  0.91034543  0.35863999  0.14965349    -0.33000
H747        H  0.91541727  0.38114155  0.16528773     0.28400
H748        H  0.08414977  0.45470212  0.11628686     0.28400
H749        H  0.01499343  0.48576244  0.13232059     0.19000
H750        H  0.95894536  0.34825141  0.12642078     0.19000
C751        C  0.96068659  0.52260364  0.18249984    -0.06800
C752        C  0.94338311  0.54428082  0.18440013    -0.18000
C753        C  0.95572606  0.57333807  0.19738755     0.10400
C754        C  0.98576214  0.58100668  0.20945701    -0.06800
C755        C  0.00429038  0.56061273  0.20715281    -0.18000
C756        C  0.99201546  0.53146299  0.19402660     0.10400
S757        S  0.93296077  0.60070732  0.19714056    -0.33000
S758        S  0.01634710  0.50564688  0.19357362    -0.33000
H759        H  0.98324323  0.47033048  0.19400256     0.28400
H760        H  0.96647091  0.63532915  0.19931310     0.28400
H761        H  0.92008280  0.53897966  0.17544691     0.19000
H762        H  0.02768731  0.56642973  0.21615693     0.19000
C763        C  0.43570106  0.60266514  0.35425072    -0.06800
C764        C  0.43775099  0.62121948  0.37099413    -0.18000
C765        C  0.41831236  0.64060820  0.37328483     0.10400
C766        C  0.39639046  0.64177500  0.35850936    -0.06800
C767        C  0.39452354  0.62362702  0.34179969    -0.18000
C768        C  0.41441420  0.60494215  0.33933201     0.10400
S769        S  0.42186837  0.66247969  0.39547381    -0.33000
S770        S  0.41328759  0.58715837  0.31631979    -0.33000
H771        H  0.45202570  0.60014898  0.31591704     0.28400
H772        H  0.38583558  0.65807387  0.39514738     0.28400
H773        H  0.45392798  0.61994742  0.38254821     0.19000
H774        H  0.37831731  0.62512150  0.33030633     0.19000
C775        C  0.42196172  0.45277228  0.29363567    -0.06800
C776        C  0.39605322  0.45442168  0.30555173    -0.18000
C777        C  0.40773163  0.47784335  0.32115137     0.10400
C778        C  0.44652462  0.50157907  0.32478756    -0.06800
C779        C  0.47251072  0.49910443  0.31320782    -0.18000
C780        C  0.46074418  0.47525869  0.29767737     0.10400
S781        S  0.37149541  0.47486422  0.33621403    -0.33000
S782        S  0.49672237  0.47674802  0.28298280    -0.33000
H783        H  0.47805942  0.47431624  0.26620510     0.28400
H784        H  0.39225038  0.48137854  0.35271739     0.28400
H785        H  0.36624880  0.43647269  0.30298021     0.19000
H786        H  0.50230755  0.51727909  0.31568650     0.19000
C787        C  0.28425875  0.32597416  0.21660817    -0.06800
C788        C  0.26545983  0.34509870  0.21158629    -0.18000
C789        C  0.23310200  0.32818763  0.20029074     0.10400
C790        C  0.21948832  0.29150807  0.19325328    -0.06800
C791        C  0.23869279  0.27278797  0.19814137    -0.18000
C792        C  0.26998933  0.28897769  0.20987321     0.10400
S793        S  0.20947374  0.35409217  0.19636405    -0.33000
S794        S  0.28875995  0.25959436  0.21641102    -0.33000
H795        H  0.28975755  0.26732276  0.23552531     0.28400
H796        H  0.17336544  0.32316503  0.19950358     0.28400
H797        H  0.27562976  0.37323242  0.21676262     0.19000
H798        H  0.22869018  0.24457754  0.19310822     0.19000
C799        C  0.60310111  0.55342906  0.14073181    -0.06800
C800        C  0.57923016  0.56157909  0.13046388    -0.18000
C801        C  0.59356627  0.59437508  0.11972630     0.10400
C802        C  0.63291054  0.61949312  0.11889258    -0.06800
C803        C  0.65633717  0.61204866  0.13006713    -0.18000
C804        C  0.64196571  0.57978716  0.14101925     0.10400
S805        S  0.56010685  0.60179382  0.10723157    -0.33000
S806        S  0.67488591  0.57388522  0.15502752    -0.33000
H807        H  0.64953675  0.55434445  0.16949379     0.28400
H808        H  0.57593790  0.63921822  0.11318942     0.28400
H809        H  0.54931962  0.54165142  0.13029475     0.19000
H810        H  0.68640946  0.63118489  0.13007418     0.19000
C811        C  0.51179773  0.45008851  0.18121789    -0.06800
C812        C  0.50616782  0.47455644  0.19248844    -0.18000
C813        C  0.47952307  0.46099423  0.20682637     0.10400
C814        C  0.45826478  0.42200890  0.21041978    -0.06800
C815        C  0.46324704  0.39755972  0.19891162    -0.18000
C816        C  0.48880402  0.41090599  0.18417356     0.10400
S817        S  0.47615786  0.49497038  0.22099722    -0.33000
S818        S  0.48930882  0.37607743  0.16931292    -0.33000
H819        H  0.49474811  0.39655856  0.15282926     0.28400
H820        H  0.43917695  0.48283681  0.21524220     0.28400
H821        H  0.52342999  0.50459816  0.19052794     0.19000
H822        H  0.44632716  0.36754609  0.20112152     0.19000
C823        C  0.76998696  0.39649075  0.14412778    -0.06800
C824        C  0.79212074  0.39547706  0.12964512    -0.18000
C825        C  0.83122111  0.41241524  0.13153328     0.10400
C826        C  0.84873675  0.42997930  0.14853560    -0.06800
C827        C  0.82627587  0.43108669  0.16289418    -0.18000
C828        C  0.78739345  0.41432584  0.16096744     0.10400
S829        S  0.85698366  0.41210355  0.11143710    -0.33000
S830        S  0.76135957  0.41531440  0.18083433    -0.33000
H831        H  0.73038668  0.37905713  0.17817292     0.28400
H832        H  0.88647762  0.44928901  0.11385596     0.28400
H833        H  0.77888232  0.38195258  0.11665262     0.19000
H834        H  0.83890321  0.44408937  0.17606545     0.19000
C835        C  0.65208982  0.40202230  0.14602214    -0.06800
C836        C  0.65314546  0.42584448  0.13188766    -0.18000
C837        C  0.63317422  0.44477140  0.13343446     0.10400
C838        C  0.61237119  0.44076469  0.14980198    -0.06800
C839        C  0.61151166  0.41683138  0.16392005    -0.18000
C840        C  0.63128343  0.39782136  0.16230304     0.10400
S841        S  0.63376185  0.47156289  0.11353220    -0.33000
S842        S  0.62962045  0.36945099  0.18175865    -0.33000
H843        H  0.66612473  0.37574303  0.17945344     0.28400
H844        H  0.59529500  0.45957506  0.11454187     0.28400
H845        H  0.66862166  0.42868681  0.11925969     0.19000
H846        H  0.59610934  0.41360107  0.17661733     0.19000
C847        C  0.42821929  0.84034838  0.35476065    -0.06800
C848        C  0.41330181  0.82361299  0.37207526    -0.18000
C849        C  0.39697332  0.78478521  0.37469818     0.10400
C850        C  0.39507695  0.76198590  0.35967145    -0.06800
C851        C  0.40984452  0.77853278  0.34243092    -0.18000
C852        C  0.42570079  0.81709928  0.33970027     0.10400
S853        S  0.37937818  0.76600931  0.39750362    -0.33000
S854        S  0.43960515  0.83412870  0.31629685    -0.33000
H855        H  0.42598135  0.85913318  0.31702860     0.28400
H856        H  0.38476075  0.73514787  0.39617319     0.28400
H857        H  0.41509102  0.84096055  0.38375657     0.19000
H858        H  0.40758663  0.76094205  0.33075942     0.19000
C859        C  0.52738169  0.95563234  0.32608055    -0.06800
C860        C  0.53163686  0.98549396  0.31495329    -0.18000
C861        C  0.55638711  0.99844444  0.29973738     0.10400
C862        C  0.57828475  0.98184548  0.29559787    -0.06800
C863        C  0.57492854  0.95293995  0.30710561    -0.18000
C864        C  0.55051515  0.94017552  0.32232436     0.10400
S865        S  0.55651841  0.03426319  0.28541310    -0.33000
S866        S  0.55139304  0.90477625  0.33664602    -0.33000
H867        H  0.54561662  0.91848728  0.35344726     0.28400
H868        H  0.55755766  0.01778946  0.26849253     0.28400
H869        H  0.51402325  0.99746692  0.31743944     0.19000
H870        H  0.59217836  0.94060060  0.30447105     0.19000
C871        C  0.69593412  0.96051164  0.22115062    -0.06800
C872        C  0.67794680  0.94074289  0.20487719    -0.18000
C873        C  0.69553687  0.92761473  0.19273781     0.10400
C874        C  0.73134966  0.93283810  0.19734454    -0.06800
C875        C  0.74809990  0.95120040  0.21414889    -0.18000
C876        C  0.73112527  0.96508500  0.22588426     0.10400
S877        S  0.67225328  0.90772411  0.17100166    -0.33000
S878        S  0.75621176  0.98883390  0.24676404    -0.33000
H879        H  0.72403891  0.97692575  0.25776804     0.28400
H880        H  0.70472755  0.92900433  0.16024948     0.28400
H881        H  0.65120150  0.93770088  0.20097800     0.19000
H882        H  0.77510995  0.95518927  0.21827411     0.19000
C883        C  0.42755539  0.04231743  0.11911413    -0.06800
C884        C  0.43230439  0.06990878  0.13200386    -0.18000
C885        C  0.46415935  0.08813599  0.14325157     0.10400
C886        C  0.49261187  0.07901841  0.14176991    -0.06800
C887        C  0.48776169  0.05072330  0.12937315    -0.18000
C888        C  0.45596302  0.03276666  0.11780715     0.10400
S889        S  0.46670684  0.12282231  0.15931624    -0.33000
S890        S  0.45479780  0.00001321  0.10097739    -0.33000
H891        H  0.44677933  0.01668905  0.08596399     0.28400
H892        H  0.48723122  0.11661265  0.17304672     0.28400
H893        H  0.41095083  0.07757140  0.13339995     0.19000
H894        H  0.50983864  0.04406091  0.12795408     0.19000
C895        C  0.60307025  0.20237891  0.15399793    -0.06800
C896        C  0.60191874  0.21540589  0.13606117    -0.18000
C897        C  0.62311856  0.25355459  0.13154480     0.10400
C898        C  0.64616311  0.27942574  0.14523156    -0.06800
C899        C  0.64675142  0.26675599  0.16320916    -0.18000
C900        C  0.62507191  0.22872338  0.16787386     0.10400
S901        S  0.61935479  0.26724797  0.10818243    -0.33000
S902        S  0.62394474  0.21505564  0.19185157    -0.33000
H903        H  0.64608698  0.25131042  0.19926235     0.28400
H904        H  0.65429915  0.30065226  0.10764559     0.28400
H905        H  0.58485203  0.19565515  0.12534398     0.19000
H906        H  0.66371400  0.28709428  0.17373265     0.19000
C907        C  0.58957410  0.09158177  0.18661459    -0.06800
C908        C  0.60509856  0.11152058  0.20319736    -0.18000
C909        C  0.61858589  0.09768576  0.21712593     0.10400
C910        C  0.61751662  0.06329339  0.21441898    -0.06800
C911        C  0.60190464  0.04330258  0.19785993    -0.18000
C912        C  0.58839748  0.05716305  0.18392388     0.10400
S913        S  0.63482591  0.12434720  0.23835912    -0.33000
S914        S  0.57202327  0.03057737  0.16268004    -0.33000
H915        H  0.58741597  0.06212630  0.15093944     0.28400
H916        H  0.61667134  0.09276791  0.25003312     0.28400
H917        H  0.60572808  0.13767634  0.20560439     0.19000
H918        H  0.60118704  0.01707952  0.19548656     0.19000
C919        C  0.95330010  0.72071017  0.87865722    -0.06800
C920        C  0.97858442  0.74942303  0.86687267    -0.18000
C921        C  0.96615575  0.76158117  0.85175405     0.10400
C922        C  0.92715874  0.74621188  0.84868149    -0.06800
C923        C  0.90181621  0.71695232  0.86034172    -0.18000
C924        C  0.91438128  0.70406046  0.87519685     0.10400
S925        S  0.00175019  0.79479896  0.83625631    -0.33000
S926        S  0.87929658  0.66743866  0.88961972    -0.33000
H927        H  0.89866320  0.68211425  0.90644815     0.28400
H928        H  0.98106873  0.77791694  0.81998355     0.28400
H929        H  0.00850733  0.76154515  0.86901199     0.19000
H930        H  0.87188743  0.70467351  0.85822110     0.19000
C931        C  0.09784661  0.74828728  0.94967739    -0.06800
C932        C  0.13171401  0.76672694  0.93980594    -0.18000
C933        C  0.16627457  0.78348180  0.94908080     0.10400
C934        C  0.16703847  0.78232532  0.96867025    -0.06800
C935        C  0.13321167  0.76526133  0.97857354    -0.18000
C936        C  0.09864922  0.74806775  0.96930374     0.10400
S937        S  0.20833073  0.80498862  0.93517667    -0.33000
S938        S  0.05669033  0.72595573  0.98328569    -0.33000
H939        H  0.03424657  0.73233348  0.97082463     0.28400
H940        H  0.23116598  0.83205063  0.94840999     0.28400
H941        H  0.13125543  0.76680636  0.92474237     0.19000
H942        H  0.13372680  0.76419001  0.99362140     0.19000
C943        C  0.73962888  0.66757137  0.04998560    -0.06800
C944        C  0.77758001  0.67904667  0.05318928    -0.18000
C945        C  0.79482951  0.66160431  0.04417139     0.10400
C946        C  0.77385789  0.63202870  0.03156320    -0.06800
C947        C  0.73646809  0.62136075  0.02791682    -0.18000
C948        C  0.71948368  0.63923998  0.03652006     0.10400
S949        S  0.84291303  0.67700736  0.05010216    -0.33000
S950        S  0.67243069  0.62501736  0.02910545    -0.33000
H951        H  0.67959419  0.66200852  0.02750067     0.28400
H952        H  0.83976408  0.64166931  0.04836639     0.28400
H953        H  0.79361859  0.70082331  0.06330018     0.19000
H954        H  0.72046127  0.59922059  0.01794551     0.19000
C955        C  0.76294292  0.51129181  0.01674782    -0.06800
C956        C  0.74824726  0.49601355  0.03431050    -0.18000
C957        C  0.73091994  0.45741735  0.03760000     0.10400
C958        C  0.72793836  0.43336360  0.02300273    -0.06800
C959        C  0.74237474  0.44838632  0.00546156    -0.18000
C960        C  0.75914522  0.48683924  0.00205972     0.10400
S961        S  0.71343365  0.44067378  0.06067798    -0.33000
S962        S  0.77249800  0.50222662  0.97841103    -0.33000
H963        H  0.76100838  0.52893819  0.97892028     0.28400
H964        H  0.71763576  0.40903282  0.06009105     0.28400
H965        H  0.75094698  0.51435118  0.04569732     0.19000
H966        H  0.73923725  0.42974483  0.99412962     0.19000
C967        C  0.86458472  0.62636545  0.98877262    -0.06800
C968        C  0.88965916  0.61286553  0.98837168    -0.18000
C969        C  0.91913731  0.62653638  0.97557241     0.10400
C970        C  0.92319394  0.65351619  0.96229231    -0.06800
C971        C  0.89938175  0.66844239  0.96325722    -0.18000
C972        C  0.86998433  0.65495341  0.97615741     0.10400
S973        S  0.95141950  0.60947205  0.97738159    -0.33000
S974        S  0.83868897  0.67322358  0.97469361    -0.33000
H975        H  0.80577199  0.63792216  0.97616333     0.28400
H976        H  0.98340180  0.64395623  0.97278670     0.28400
H977        H  0.88640520  0.59157668  0.99822338     0.19000
H978        H  0.90240267  0.68936312  0.95322711     0.19000
C979        C  0.93957108  0.85212053  0.81114130    -0.06800
C980        C  0.95704447  0.87802697  0.82564728    -0.18000
C981        C  0.97365747  0.91664070  0.82260019     0.10400
C982        C  0.97388106  0.93012209  0.80453978    -0.06800
C983        C  0.95711320  0.90454749  0.78993232    -0.18000
C984        C  0.94038378  0.86585347  0.79296918     0.10400
S985        S  0.99330451  0.94729154  0.84242327    -0.33000
S986        S  0.92244779  0.83586610  0.77289148    -0.33000
H987        H  0.93459639  0.81138151  0.77891455     0.28400
H988        H  0.98405403  0.97399451  0.83647800     0.28400
H989        H  0.95650902  0.86810395  0.83965218     0.19000
H990        H  0.95778813  0.91486698  0.77599689     0.19000
C991        C  0.92907554  0.08668570  0.80809152    -0.06800
C992        C  0.95427588  0.09681959  0.79304111    -0.18000
C993        C  0.97213806  0.07666363  0.78868710     0.10400
C994        C  0.96608738  0.04615882  0.79997718    -0.06800
C995        C  0.93973960  0.03479818  0.81438370    -0.18000
C996        C  0.92060896  0.05383423  0.81828287     0.10400
S997        S  0.00187803  0.09105395  0.76840462    -0.33000
S998        S  0.88624220  0.03417270  0.83656037    -0.33000
H999        H  0.85740408  0.03247550  0.82539970     0.28400
H1000       H  0.99659684  0.05541260  0.76439418     0.28400
H1001       H  0.96045183  0.12085347  0.78450386     0.19000
H1002       H  0.93448837  0.01114352  0.82302647     0.19000
C1003       C  0.79449112  0.08826960  0.87522530    -0.06800
C1004       C  0.82928995  0.09089655  0.87837192    -0.18000
C1005       C  0.85776095  0.10604904  0.86499749     0.10400
C1006       C  0.85128001  0.11803900  0.84770972    -0.06800
C1007       C  0.81714432  0.11681845  0.84475266    -0.18000
C1008       C  0.78862313  0.10176525  0.85817015     0.10400
S1009       S  0.90218736  0.11045889  0.87108850    -0.33000
S1010       S  0.74464866  0.09820105  0.85203393    -0.33000
H1011       H  0.72256279  0.06107209  0.85841182     0.28400
H1012       H  0.92423396  0.14241136  0.86012998     0.28400
H1013       H  0.83462019  0.08155318  0.89149955     0.19000
H1014       H  0.81186801  0.12576136  0.83148914     0.19000
C1015       C  0.63885509  0.87495470  0.96630425    -0.06800
C1016       C  0.65785378  0.90865486  0.97630754    -0.18000
C1017       C  0.67791758  0.94320722  0.96712102     0.10400
C1018       C  0.67890547  0.94419558  0.94747494    -0.06800
C1019       C  0.66146538  0.91028884  0.93756269    -0.18000
C1020       C  0.64148834  0.87579236  0.94674833     0.10400
S1021       S  0.70165768  0.98496356  0.98119460    -0.33000
S1022       S  0.61927875  0.83382941  0.93275908    -0.33000
H1023       H  0.62235743  0.81046719  0.94598489     0.28400
H1024       H  0.73150358  0.00505224  0.96874029     0.28400
H1025       H  0.65623380  0.90811899  0.99134660     0.19000
H1026       H  0.66208197  0.91070528  0.92250417     0.19000
C1027       C  0.94316293  0.29228634  0.05380166    -0.06800
C1028       C  0.93930855  0.27181661  0.03757782    -0.18000
C1029       C  0.90657431  0.25697274  0.02663416     0.10400
C1030       C  0.87621739  0.26141394  0.03239084    -0.06800
C1031       C  0.88009672  0.28079698  0.04910929    -0.18000
C1032       C  0.91286507  0.29616164  0.05972513     0.10400
S1033       S  0.90684759  0.23544336  0.00495465    -0.33000
S1034       S  0.91408636  0.32013891  0.08090242    -0.33000
H1035       H  0.93562369  0.30860186  0.09103059     0.28400
H1036       H  0.89389811  0.25541913  0.99449715     0.28400
H1037       H  0.96274131  0.26918857  0.03284881     0.19000
H1038       H  0.85732433  0.28418545  0.05411599     0.19000
C1039       C  0.76665919  0.27366189  0.01847525    -0.06800
C1040       C  0.74961950  0.27955106  0.00296093    -0.18000
C1041       C  0.73119295  0.29986897  0.00441212     0.10400
C1042       C  0.72888899  0.31405763  0.02185139    -0.06800
C1043       C  0.74555434  0.30812748  0.03742788    -0.18000
C1044       C  0.76405264  0.28777486  0.03600799     0.10400
S1045       S  0.71159709  0.30707969  0.98345669    -0.33000
S1046       S  0.78173528  0.27926680  0.05725105    -0.33000
H1047       H  0.77225403  0.24248456  0.05253578     0.28400
H1048       H  0.71694966  0.34234363  0.98835767     0.28400
H1049       H  0.75156918  0.26916286  0.98943623     0.19000
H1050       H  0.74330455  0.31864517  0.05086582     0.19000
C1051       C  0.75621673  0.12533133  0.95567199    -0.06800
C1052       C  0.73030700  0.12948099  0.96640700    -0.18000
C1053       C  0.74176811  0.15463725  0.98132121     0.10400
C1054       C  0.78053760  0.17747050  0.98557288    -0.06800
C1055       C  0.80651018  0.17323128  0.97482870    -0.18000
C1056       C  0.79490828  0.14793817  0.95987591     0.10400
S1057       S  0.70495601  0.15455376  0.99477370    -0.33000
S1058       S  0.83105208  0.14770682  0.94602980    -0.33000
H1059       H  0.81281270  0.14391077  0.92894213     0.28400
H1060       H  0.72257888  0.15806555  0.01202011     0.28400
H1061       H  0.70055336  0.11198150  0.96355401     0.19000
H1062       H  0.83626518  0.19089209  0.97756480     0.19000
C1063       C  0.16853762  0.09427278  0.81032419    -0.06800
C1064       C  0.15505511  0.08838176  0.79194442    -0.18000
C1065       C  0.11643511  0.06861048  0.78805707     0.10400
C1066       C  0.09062328  0.05446621  0.80292547    -0.06800
C1067       C  0.10402858  0.06021303  0.82123486    -0.18000
C1068       C  0.14248740  0.07931117  0.82508615     0.10400
S1069       S  0.10242905  0.06141130  0.76388978    -0.33000
S1070       S  0.15628697  0.08104831  0.84902243    -0.33000
H1071       H  0.18631911  0.07526200  0.84514222     0.28400
H1072       H  0.06448684  0.05026732  0.76613372     0.28400
H1073       H  0.17478255  0.09934120  0.78051345     0.19000
H1074       H  0.08424839  0.04858508  0.83262924     0.19000
C1075       C  0.30453331  0.23805801  0.87681043    -0.06800
C1076       C  0.32530234  0.24604905  0.86027965    -0.18000
C1077       C  0.31217443  0.22131664  0.84511619     0.10400
C1078       C  0.27774670  0.18701140  0.84646974    -0.06800
C1079       C  0.25745005  0.17860817  0.86317466    -0.18000
C1080       C  0.27064025  0.20330136  0.87835161     0.10400
S1081       S  0.33942637  0.23651941  0.82405683    -0.33000
S1082       S  0.24377195  0.18796452  0.89951890    -0.33000
H1083       H  0.27536665  0.20244152  0.91126328     0.28400
H1084       H  0.30818181  0.22258662  0.81211442     0.28400
H1085       H  0.35128351  0.27259786  0.85882410     0.19000
H1086       H  0.23140956  0.15211520  0.86458752     0.19000
C1087       C  0.29212865  0.36821254  0.94787368    -0.06800
C1088       C  0.31524344  0.39715697  0.96027992    -0.18000
C1089       C  0.30177378  0.41660365  0.97049480     0.10400
C1090       C  0.26400797  0.40718446  0.96850090    -0.06800
C1091       C  0.24047065  0.37783781  0.95648005    -0.18000
C1092       C  0.25420368  0.35888852  0.94587297     0.10400
S1093       S  0.33422654  0.45276281  0.98608498    -0.33000
S1094       S  0.22237073  0.32480369  0.92940324    -0.33000
H1095       H  0.24707423  0.34133661  0.91433496     0.28400
H1096       H  0.30739039  0.44703881  0.99965251     0.28400
H1097       H  0.34432424  0.40490794  0.96211561     0.19000
H1098       H  0.21159108  0.37083290  0.95466328     0.19000
C1099       C  0.37343005  0.09194926  0.05108572    -0.06800
C1100       C  0.40308159  0.09788557  0.03931269    -0.18000
C1101       C  0.42070052  0.12905829  0.02759185     0.10400
C1102       C  0.40872675  0.15552576  0.02740325    -0.06800
C1103       C  0.37809830  0.14903510  0.03846068    -0.18000
C1104       C  0.36081651  0.11808145  0.05050546     0.10400
S1105       S  0.45818063  0.13317997  0.01309685    -0.33000
S1106       S  0.32446206  0.11502431  0.06539441    -0.33000
H1107       H  0.34226352  0.11329181  0.08175337     0.28400
H1108       H  0.45151198  0.15124926  0.99826923     0.28400
H1109       H  0.41299374  0.07814711  0.03924931     0.19000
H1110       H  0.36897629  0.16940944  0.03853188     0.19000
C1111       C  0.53002108  0.26858100  0.01429050    -0.06800
C1112       C  0.54477869  0.26521030  0.03135221    -0.18000
C1113       C  0.58322797  0.28642031  0.03521634     0.10400
C1114       C  0.60777734  0.31166390  0.02176684    -0.06800
C1115       C  0.59340584  0.31498323  0.00470899    -0.18000
C1116       C  0.55502602  0.29338032  0.00063825     0.10400
S1117       S  0.59919602  0.28017440  0.05755416    -0.33000
S1118       S  0.53949113  0.29603805  0.97748028    -0.33000
H1119       H  0.57501973  0.32019242  0.96976470     0.28400
H1120       H  0.63021729  0.31675522  0.05900729     0.28400
H1121       H  0.52617512  0.24629287  0.04192783     0.19000
H1122       H  0.61271824  0.33381733  0.99432873     0.19000
C1123       C  0.41611194  0.25252594  0.98398738    -0.06800
C1124       C  0.43755707  0.27208527  0.96838916    -0.18000
C1125       C  0.42365009  0.28566685  0.95464869     0.10400
C1126       C  0.38726364  0.28038084  0.95643850    -0.06800
C1127       C  0.36542400  0.26044816  0.97189088    -0.18000
C1128       C  0.37950651  0.24687863  0.98573841     0.10400
S1129       S  0.45322222  0.30760492  0.93472938    -0.33000
S1130       S  0.35002959  0.22434397  0.00558391    -0.33000
H1131       H  0.37945908  0.24050342  0.01863064     0.28400
H1132       H  0.42397524  0.28954244  0.92168477     0.28400
H1133       H  0.46518933  0.27586297  0.96648015     0.19000
H1134       H  0.33752469  0.25634312  0.97348972     0.19000
C1135       C  0.63504578  0.38456258  0.64737203    -0.06800
C1136       C  0.61483033  0.38573695  0.63197877    -0.18000
C1137       C  0.59658903  0.40666018  0.63247476     0.10400
C1138       C  0.59825910  0.42638024  0.64890997    -0.06800
C1139       C  0.61833339  0.42461336  0.66429457    -0.18000
C1140       C  0.63661117  0.40399364  0.66370668     0.10400
S1141       S  0.57322019  0.40935696  0.61175898    -0.33000
S1142       S  0.66114740  0.40177630  0.68406922    -0.33000
H1143       H  0.65445791  0.42538694  0.69545192     0.28400
H1144       H  0.58302428  0.38842439  0.60008342     0.28400
H1145       H  0.61409198  0.37084358  0.61947244     0.19000
H1146       H  0.61923164  0.43900604  0.67700606     0.19000
C1147       C  0.61544909  0.57555527  0.71238217    -0.06800
C1148       C  0.59353623  0.57867084  0.69825524    -0.18000
C1149       C  0.57987771  0.55363713  0.68316148     0.10400
C1150       C  0.58753628  0.52396810  0.68213131    -0.06800
C1151       C  0.60903569  0.52071254  0.69642251    -0.18000
C1152       C  0.62246552  0.54549629  0.71148545     0.10400
S1153       S  0.55474786  0.56255035  0.66530914    -0.33000
S1154       S  0.64693557  0.53587144  0.72941519    -0.33000
H1155       H  0.62720998  0.54072833  0.74402730     0.28400
H1156       H  0.57218347  0.55506447  0.65051143     0.28400
H1157       H  0.58795856  0.60158648  0.69861477     0.19000
H1158       H  0.61466524  0.49782416  0.69622210     0.19000
C1159       C  0.75883993  0.69254252  0.78451144    -0.06800
C1160       C  0.79202977  0.70296887  0.77471232    -0.18000
C1161       C  0.82691688  0.71995868  0.78370560     0.10400
C1162       C  0.82901402  0.72696826  0.80300105    -0.06800
C1163       C  0.79572347  0.71460847  0.81303933    -0.18000
C1164       C  0.76070043  0.69724473  0.80404704     0.10400
S1165       S  0.86775473  0.73267912  0.76966214    -0.33000
S1166       S  0.71954600  0.68158179  0.81826080    -0.33000
H1167       H  0.69598362  0.65026531  0.80719454     0.28400
H1168       H  0.89054944  0.73224088  0.78407187     0.28400
H1169       H  0.79097952  0.69908614  0.75978354     0.19000
H1170       H  0.79710302  0.71959786  0.82788210     0.19000
C1171       C  0.43278403  0.48375547  0.86309267    -0.06800
C1172       C  0.45516554  0.47575657  0.87464090    -0.18000
C1173       C  0.43934316  0.44302478  0.88544761     0.10400
C1174       C  0.40029323  0.41678025  0.88419236    -0.06800
C1175       C  0.37845834  0.42436695  0.87190391    -0.18000
C1176       C  0.39415931  0.45732665  0.86143473     0.10400
S1177       S  0.47017423  0.43805505  0.90138390    -0.33000
S1178       S  0.36331490  0.46412930  0.84624202    -0.33000
H1179       H  0.39077235  0.48548460  0.83288785     0.28400
H1180       H  0.44806244  0.43436526  0.91698399     0.28400
H1181       H  0.48476316  0.49626309  0.87614202     0.19000
H1182       H  0.34864558  0.40465237  0.87053160     0.19000
C1183       C  0.38887127  0.63796860  0.85972705    -0.06800
C1184       C  0.38931537  0.61538636  0.87414473    -0.18000
C1185       C  0.40960105  0.59677412  0.87251962     0.10400
C1186       C  0.42893512  0.59961416  0.85578984    -0.06800
C1187       C  0.42870645  0.62266097  0.84149226    -0.18000
C1188       C  0.40878885  0.64150095  0.84319473     0.10400
S1189       S  0.41130297  0.57177897  0.89268233    -0.33000
S1190       S  0.40887648  0.66849786  0.82344944    -0.33000
H1191       H  0.37209732  0.66136392  0.82594594     0.28400
H1192       H  0.44917534  0.58229556  0.89028866     0.28400
H1193       H  0.37458284  0.61309313  0.88696692     0.19000
H1194       H  0.44306886  0.62503900  0.82853648     0.19000
C1195       C  0.52282372  0.58457018  0.82126423    -0.06800
C1196       C  0.52248770  0.60880079  0.80762953    -0.18000
C1197       C  0.54886172  0.62302079  0.79329029     0.10400
C1198       C  0.57738254  0.61376941  0.79250152    -0.06800
C1199       C  0.57755469  0.58910733  0.80592986    -0.18000
C1200       C  0.55103262  0.57478478  0.82033428     0.10400
S1201       S  0.54317103  0.65133439  0.77600734    -0.33000
S1202       S  0.55624720  0.54598428  0.83750333    -0.33000
H1203       H  0.54878322  0.56254843  0.85271174     0.28400
H1204       H  0.54948884  0.63370611  0.76087932     0.28400
H1205       H  0.50072409  0.61607058  0.80777607     0.19000
H1206       H  0.59933354  0.58186563  0.80559143     0.19000
C1207       C  0.60177972  0.18673002  0.65643659    -0.06800
C1208       C  0.59117977  0.20080866  0.64136928    -0.18000
C1209       C  0.60898172  0.23945633  0.63797167     0.10400
C1210       C  0.63750950  0.26476457  0.65020198    -0.06800
C1211       C  0.64785302  0.25034428  0.66531775    -0.18000
C1212       C  0.63084048  0.21176037  0.66835978     0.10400
S1213       S  0.59492303  0.25432690  0.61745764    -0.33000
S1214       S  0.64799512  0.19635845  0.68749850    -0.33000
H1215       H  0.64087286  0.16243229  0.67943090     0.28400
H1216       H  0.63061375  0.28533123  0.61368568     0.28400
H1217       H  0.56921998  0.18150766  0.63204448     0.19000
H1218       H  0.66963121  0.26935289  0.67480303     0.19000
C1219       C  0.45294507  0.04786294  0.71737233    -0.06800
C1220       C  0.48500490  0.08315197  0.72010891    -0.18000
C1221       C  0.51568566  0.09695835  0.70808155     0.10400
C1222       C  0.51415880  0.07588335  0.69222087    -0.06800
C1223       C  0.48277674  0.03984640  0.68988690    -0.18000
C1224       C  0.45219840  0.02575650  0.70214787     0.10400
S1225       S  0.55649419  0.14100246  0.71436919    -0.33000
S1226       S  0.41217460  0.98060189  0.69674678    -0.33000
H1227       H  0.38607483  0.99237193  0.69963915     0.28400
H1228       H  0.58222561  0.13067121  0.70812710     0.28400
H1229       H  0.48661517  0.09992244  0.73202568     0.19000
H1230       H  0.48105858  0.02332661  0.67784541     0.19000
C1231       C  0.33376888  0.08246156  0.77982874    -0.06800
C1232       C  0.30775875  0.08745271  0.76952460    -0.18000
C1233       C  0.28765295  0.10275557  0.77761755     0.10400
C1234       C  0.29364199  0.11368573  0.79656591    -0.06800
C1235       C  0.32124180  0.11059898  0.80652735    -0.18000
C1236       C  0.34118214  0.09513579  0.79843564     0.10400
S1237       S  0.25457937  0.10707833  0.76297124    -0.33000
S1238       S  0.37533443  0.09190261  0.81270801    -0.33000
H1239       H  0.40004796  0.09731041  0.79804949     0.28400
H1240       H  0.26071391  0.14066483  0.77108759     0.28400
H1241       H  0.30184284  0.07788651  0.75523555     0.19000
H1242       H  0.32639463  0.11897591  0.82099739     0.19000
C1243       C  0.54172207  0.95676968  0.86761643    -0.06800
C1244       C  0.56354661  0.93962065  0.86862443    -0.18000
C1245       C  0.59753267  0.95590282  0.87835009     0.10400
C1246       C  0.61154295  0.99136935  0.88696554    -0.06800
C1247       C  0.58978541  0.00871279  0.88594913    -0.18000
C1248       C  0.55497573  0.99165750  0.87664550     0.10400
S1249       S  0.62022946  0.92853674  0.87996631    -0.33000
S1250       S  0.52809259  0.01486217  0.87770644    -0.33000
H1251       H  0.49324459  0.98172775  0.87999470     0.28400
H1252       H  0.62556772  0.93318868  0.89932554     0.28400
H1253       H  0.55363082  0.91263051  0.86203554     0.19000
H1254       H  0.59966561  0.03553736  0.89269050     0.19000
C1255       C  0.42960501  0.83589344  0.85313981    -0.06800
C1256       C  0.43076193  0.82073454  0.87047751    -0.18000
C1257       C  0.41011221  0.78205931  0.87376954     0.10400
C1258       C  0.38800755  0.75770314  0.85936930    -0.06800
C1259       C  0.38648726  0.77258887  0.84212616    -0.18000
C1260       C  0.40735432  0.81116674  0.83874005     0.10400
S1261       S  0.41286170  0.76567202  0.89665440    -0.33000
S1262       S  0.40614971  0.82634834  0.81539039    -0.33000
H1263       H  0.44493209  0.85230745  0.81465965     0.28400
H1264       H  0.37737006  0.73285210  0.89644401     0.28400
H1265       H  0.44738836  0.83920277  0.88170037     0.19000
H1266       H  0.36992280  0.75379210  0.83097774     0.19000
C1267       C  0.44338256  0.95032610  0.82473790    -0.06800
C1268       C  0.46783055  0.97791363  0.81216149    -0.18000
C1269       C  0.45408832  0.99083516  0.79781284     0.10400
C1270       C  0.41496128  0.97639706  0.79607253    -0.06800
C1271       C  0.39074634  0.94956183  0.80890664    -0.18000
C1272       C  0.40440698  0.93696599  0.82330312     0.10400
S1273       S  0.48767726  0.02374024  0.78147351    -0.33000
S1274       S  0.37052199  0.90484139  0.83980191    -0.33000
H1275       H  0.39490112  0.91859435  0.85519210     0.28400
H1276       H  0.46459599  0.00792491  0.76575995     0.28400
H1277       H  0.49766322  0.98808966  0.81290951     0.19000
H1278       H  0.36083527  0.93895168  0.80801393     0.19000
C1279       C  0.06954456  0.59700757  0.86362471    -0.06800
C1280       C  0.04131645  0.57468127  0.87635255    -0.18000
C1281       C  0.02427377  0.58982835  0.88741726     0.10400
C1282       C  0.03580119  0.62839540  0.88581991    -0.06800
C1283       C  0.06316413  0.65011123  0.87245349    -0.18000
C1284       C  0.08012391  0.63493006  0.86145545     0.10400
S1285       S  0.98940741  0.55876110  0.90375173    -0.33000
S1286       S  0.11554306  0.66421139  0.84470588    -0.33000
H1287       H  0.11379638  0.69689653  0.84767107     0.28400
H1288       H  0.96215951  0.56691858  0.89730717     0.28400
H1289       H  0.03329429  0.54551928  0.87808044     0.19000
H1290       H  0.07199916  0.67946250  0.87084643     0.19000
C1291       C  0.26686988  0.63589305  0.86176335    -0.06800
C1292       C  0.24995401  0.60557938  0.84938020    -0.18000
C1293       C  0.21136147  0.58675665  0.84565747     0.10400
C1294       C  0.18870774  0.59968227  0.85393490    -0.06800
C1295       C  0.20560744  0.62923634  0.86689847    -0.18000
C1296       C  0.24387298  0.64670192  0.87122042     0.10400
S1297       S  0.19278891  0.54661348  0.83023875    -0.33000
S1298       S  0.26109525  0.68180932  0.88930385    -0.33000
H1299       H  0.28981170  0.67551659  0.89538104     0.28400
H1300       H  0.22517428  0.54370805  0.82903569     0.28400
H1301       H  0.26740098  0.59727639  0.84204490     0.19000
H1302       H  0.18893696  0.63895730  0.87389110     0.19000
C1303       C  0.05668364  0.45644635  0.79014730    -0.06800
C1304       C  0.08804419  0.49182711  0.78657874    -0.18000
C1305       C  0.09922236  0.52159498  0.79903428     0.10400
C1306       C  0.07934208  0.51598976  0.81584088    -0.06800
C1307       C  0.04740318  0.48095895  0.81925937    -0.18000
C1308       C  0.03612987  0.45108732  0.80675169     0.10400
S1309       S  0.13865632  0.56641514  0.79244264    -0.33000
S1310       S  0.99705044  0.40625774  0.81351377    -0.33000
H1311       H  0.01345178  0.38551686  0.80740753     0.28400
H1312       H  0.12622365  0.58804281  0.80172056     0.28400
H1313       H  0.10355295  0.49662590  0.77375873     0.19000
H1314       H  0.03246437  0.47616078  0.83226558     0.19000
C1315       C  0.96902099  0.27579338  0.78014569    -0.06800
C1316       C  0.92967960  0.25581599  0.78196629    -0.18000
C1317       C  0.91084790  0.22086401  0.79097915     0.10400
C1318       C  0.93174601  0.20561180  0.79862244    -0.06800
C1319       C  0.97091271  0.22566499  0.79691352    -0.18000
C1320       C  0.98965456  0.26004193  0.78767719     0.10400
S1321       S  0.86028420  0.19653692  0.79152612    -0.33000
S1322       S  0.03975887  0.28103951  0.78529220    -0.33000
H1323       H  0.03971064  0.28736926  0.76607481     0.28400
H1324       H  0.85503351  0.16029377  0.78996750     0.28400
H1325       H  0.91339977  0.26723602  0.77611302     0.19000
H1326       H  0.98719111  0.21410554  0.80263898     0.19000
C1327       C  0.83515659  0.43198223  0.65627738    -0.06800
C1328       C  0.81164573  0.40983653  0.67079576    -0.18000
C1329       C  0.77267347  0.38858557  0.66853407     0.10400
C1330       C  0.75655039  0.38856634  0.65120501    -0.06800
C1331       C  0.77985425  0.41028782  0.63661702    -0.18000
C1332       C  0.81887769  0.43148804  0.63884626     0.10400
S1333       S  0.74504892  0.36307145  0.68847527    -0.33000
S1334       S  0.84619130  0.45542570  0.61859906    -0.33000
H1335       H  0.87462057  0.44707105  0.62226283     0.28400
H1336       H  0.71363756  0.36631226  0.68418394     0.28400
H1337       H  0.82360903  0.40993048  0.68422770     0.19000
H1338       H  0.76756957  0.41004168  0.62325413     0.19000
C1339       C  0.94914281  0.44688039  0.68636651    -0.06800
C1340       C  0.98341122  0.47184725  0.69514985    -0.18000
C1341       C  0.00012300  0.45919621  0.70802404     0.10400
C1342       C  0.98259783  0.42049898  0.71218196    -0.06800
C1343       C  0.94897561  0.39557274  0.70316972    -0.18000
C1344       C  0.93248562  0.40795624  0.69019915     0.10400
S1345       S  0.04245075  0.49408271  0.71940621    -0.33000
S1346       S  0.89114723  0.37185255  0.67862707    -0.33000
H1347       H  0.90292612  0.38780868  0.66086522     0.28400
H1348       H  0.03155567  0.47793810  0.73718299     0.28400
H1349       H  0.99670559  0.50169380  0.69252565     0.19000
H1350       H  0.93570509  0.36575236  0.70592932     0.19000
C1351       C  0.26501005  0.94426284  0.72983881    -0.06800
C1352       C  0.23259573  0.93637761  0.73976611    -0.18000
C1353       C  0.19747612  0.92056207  0.73102280     0.10400
C1354       C  0.19441920  0.91294437  0.71173427    -0.06800
C1355       C  0.22634700  0.91868801  0.70204833    -0.18000
C1356       C  0.26134935  0.93388484  0.71086582     0.10400
S1357       S  0.15765639  0.91049932  0.74531326    -0.33000
S1358       S  0.30006676  0.93914073  0.69709348    -0.33000
H1359       H  0.31689979  0.93015158  0.71166861     0.28400
H1360       H  0.13183432  0.87842698  0.73530844     0.28400
H1361       H  0.23474672  0.94360346  0.75436707     0.19000
H1362       H  0.22430926  0.91233533  0.68733573     0.19000
C1363       C  0.08938826  0.93240449  0.69700077    -0.06800
C1364       C  0.07883886  0.93591251  0.71511024    -0.18000
C1365       C  0.05874017  0.95430394  0.71846272     0.10400
C1366       C  0.04884269  0.96929260  0.70331451    -0.06800
C1367       C  0.05973362  0.96614695  0.68530858    -0.18000
C1368       C  0.08017921  0.94836486  0.68199553     0.10400
S1369       S  0.04638170  0.95713591  0.74222914    -0.33000
S1370       S  0.09502502  0.94863995  0.65840947    -0.33000
H1371       H  0.12994779  0.95280227  0.66320669     0.28400
H1372       H  0.03889690  0.98643340  0.73998437     0.28400
H1373       H  0.08597223  0.92390182  0.72669187     0.19000
H1374       H  0.05274995  0.97831568  0.67372806     0.19000
C1375       C  0.08074160  0.79105944  0.63025086    -0.06800
C1376       C  0.09990741  0.78624058  0.64515666    -0.18000
C1377       C  0.11177994  0.81019492  0.66056657     0.10400
C1378       C  0.10525621  0.84064338  0.66110289    -0.06800
C1379       C  0.08672974  0.84583658  0.64595534    -0.18000
C1380       C  0.07497700  0.82192284  0.63053647     0.10400
S1381       S  0.13281423  0.79858057  0.67943340    -0.33000
S1382       S  0.05442095  0.83350148  0.61141987    -0.33000
H1383       H  0.07359593  0.82565550  0.59764754     0.28400
H1384       H  0.11239039  0.80439396  0.69332485     0.28400
H1385       H  0.10439858  0.76260292  0.64520065     0.19000
H1386       H  0.08208604  0.86936091  0.64585920     0.19000
C1387       C  0.99368983  0.61435673  0.62473071    -0.06800
C1388       C  0.96084654  0.60558119  0.63457883    -0.18000
C1389       C  0.94222438  0.57338553  0.64561093     0.10400
C1390       C  0.95601999  0.54842178  0.64675661    -0.06800
C1391       C  0.98976807  0.55789757  0.63776183    -0.18000
C1392       C  0.00851532  0.59021232  0.62669908     0.10400
S1393       S  0.90148111  0.56631632  0.65824898    -0.33000
S1394       S  0.05036354  0.59802256  0.61507711    -0.33000
H1395       H  0.03600396  0.59776416  0.59728518     0.28400
H1396       H  0.90730619  0.54895625  0.67368639     0.28400
H1397       H  0.94934021  0.62395008  0.63371021     0.19000
H1398       H  0.00068644  0.53901595  0.63859825     0.19000
C1399       C  0.26274689  0.76223636  0.48152376    -0.06800
C1400       C  0.26133189  0.73717432  0.49521055    -0.18000
C1401       C  0.28020024  0.71740398  0.49312004     0.10400
C1402       C  0.30069028  0.72173659  0.47675723    -0.06800
C1403       C  0.30191906  0.74609864  0.46285762    -0.18000
C1404       C  0.28305990  0.76622747  0.46491146     0.10400
S1405       S  0.27816494  0.68816579  0.51225265    -0.33000
S1406       S  0.28491441  0.79583004  0.44592975    -0.33000
H1407       H  0.30259224  0.78453615  0.43292495     0.28400
H1408       H  0.31521835  0.69572806  0.51044920     0.28400
H1409       H  0.24631093  0.73362584  0.50806767     0.19000
H1410       H  0.31777026  0.74924247  0.45035062     0.19000
C1411       C  0.17464205  0.77927290  0.52048381    -0.06800
C1412       C  0.15837917  0.74145178  0.52592786    -0.18000
C1413       C  0.13306056  0.72656722  0.54072766     0.10400
C1414       C  0.12173682  0.74922765  0.55009150    -0.06800
C1415       C  0.13789672  0.78700500  0.54473707    -0.18000
C1416       C  0.16467172  0.80244664  0.53050970     0.10400
S1417       S  0.11575574  0.67817952  0.54654610    -0.33000
S1418       S  0.18597621  0.85217835  0.52668213    -0.33000
H1419       H  0.22280052  0.85851782  0.52654090     0.28400
H1420       H  0.12997555  0.68678888  0.56479462     0.28400
H1421       H  0.16552390  0.72300280  0.51865724     0.19000
H1422       H  0.13022003  0.80507424  0.55199618     0.19000
C1423       C  0.10289085  0.28913440  0.69811644    -0.06800
C1424       C  0.06425250  0.27174354  0.70149379    -0.18000
C1425       C  0.04890907  0.28963882  0.71146542     0.10400
C1426       C  0.07234239  0.32689677  0.71782779    -0.06800
C1427       C  0.11109427  0.34471669  0.71422861    -0.18000
C1428       C  0.12664034  0.32613719  0.70464684     0.10400
S1429       S  0.99950296  0.26190863  0.71666163    -0.33000
S1430       S  0.17693355  0.35030434  0.70215483    -0.33000
H1431       H  0.18010838  0.31845132  0.70528275     0.28400
H1432       H  0.00399078  0.27193914  0.73557121     0.28400
H1433       H  0.04574442  0.24324682  0.69676185     0.19000
H1434       H  0.12947863  0.37303151  0.71919332     0.19000
C1435       C  0.05123922  0.08907803  0.69800473    -0.06800
C1436       C  0.05817858  0.11486906  0.71220251    -0.18000
C1437       C  0.07926064  0.15362970  0.70883565     0.10400
C1438       C  0.09287349  0.16679715  0.69065315    -0.06800
C1439       C  0.08653803  0.14061793  0.67662042    -0.18000
C1440       C  0.06588740  0.10197473  0.68011527     0.10400
S1441       S  0.09001865  0.18554795  0.72812224    -0.33000
S1442       S  0.05746572  0.06908828  0.66160302    -0.33000
H1443       H  0.07545256  0.09578794  0.64744647     0.28400
H1444       H  0.07326835  0.15826958  0.74214338     0.28400
H1445       H  0.04734278  0.10445746  0.72596819     0.19000
H1446       H  0.09693374  0.15043547  0.66274483     0.19000
C1447       C  0.18189889  0.27320685  0.65151883    -0.06800
C1448       C  0.21336146  0.30901454  0.65419220    -0.18000
C1449       C  0.24340245  0.32413949  0.64168455     0.10400
C1450       C  0.24173704  0.30377881  0.62554362    -0.06800
C1451       C  0.21018309  0.26800143  0.62280296    -0.18000
C1452       C  0.18025184  0.25268245  0.63543481     0.10400
S1453       S  0.28393983  0.36844907  0.64786838    -0.33000
S1454       S  0.14014909  0.20772921  0.62963689    -0.33000
H1455       H  0.11339257  0.21585968  0.63675057     0.28400
H1456       H  0.31003046  0.35786774  0.64256380     0.28400
H1457       H  0.21534476  0.32478682  0.66659113     0.19000
H1458       H  0.20825684  0.25223362  0.61041462     0.19000
C1459       C  0.42058696  0.40692966  0.61709392    -0.06800
C1460       C  0.42759975  0.38542124  0.62984576    -0.18000
C1461       C  0.46071101  0.40095321  0.64021872     0.10400
C1462       C  0.48817507  0.43908668  0.63790844    -0.06800
C1463       C  0.48085393  0.46132152  0.62587828    -0.18000
C1464       C  0.44766913  0.44564903  0.61529019     0.10400
S1465       S  0.46627939  0.37041350  0.65618299    -0.33000
S1466       S  0.44283519  0.47617223  0.59912008    -0.33000
H1467       H  0.43713264  0.45280015  0.58376185     0.28400
H1468       H  0.48841067  0.39847531  0.66916649     0.28400
H1469       H  0.40720209  0.35593448  0.63172141     0.19000
H1470       H  0.50199913  0.49057408  0.62395439     0.19000
C1471       C  0.26274113  0.52455874  0.48423656    -0.06800
C1472       C  0.26803877  0.53845962  0.46595171    -0.18000
C1473       C  0.28799963  0.57715173  0.46230515     0.10400
C1474       C  0.30320724  0.60268006  0.47724770    -0.06800
C1475       C  0.29766622  0.58893418  0.49547463    -0.18000
C1476       C  0.27703765  0.55041465  0.49915012     0.10400
S1477       S  0.29229958  0.59203555  0.43838875    -0.33000
S1478       S  0.26746601  0.53640322  0.52317916    -0.33000
H1479       H  0.23031598  0.50738183  0.52001969     0.28400
H1480       H  0.32517793  0.62708636  0.44044807     0.28400
H1481       H  0.25684594  0.51902887  0.45439125     0.19000
H1482       H  0.30840932  0.60852788  0.50699265     0.19000
C1483       C  0.24715581  0.41408771  0.51840694    -0.06800
C1484       C  0.25950126  0.43301078  0.53546124    -0.18000
C1485       C  0.27288480  0.41963561  0.54967186     0.10400
C1486       C  0.27576223  0.38741141  0.54661286    -0.06800
C1487       C  0.26286082  0.36814618  0.52967724    -0.18000
C1488       C  0.24846356  0.38092459  0.51567894     0.10400
S1489       S  0.28412775  0.44395207  0.57162362    -0.33000
S1490       S  0.23531397  0.35564701  0.49404058    -0.33000
H1491       H  0.19691189  0.34260755  0.49667170     0.28400
H1492       H  0.26885628  0.41110365  0.58244868     0.28400
H1493       H  0.25793361  0.45802418  0.53790216     0.19000
H1494       H  0.26486408  0.34340982  0.52710774     0.19000
C1495       C  0.72876616  0.81717624  0.69586123    -0.06800
C1496       C  0.70354673  0.81286754  0.70996645    -0.18000
C1497       C  0.68854664  0.78175075  0.72195831     0.10400
C1498       C  0.69838716  0.75374106  0.71961696    -0.06800
C1499       C  0.72213453  0.75746374  0.70477595    -0.18000
C1500       C  0.73707355  0.78847964  0.69291110     0.10400
S1501       S  0.65929430  0.78105607  0.74061657    -0.33000
S1502       S  0.76713084  0.79020912  0.67433002    -0.33000
H1503       H  0.75863672  0.81156755  0.66218263     0.28400
H1504       H  0.68009082  0.77542294  0.75443703     0.28400
H1505       H  0.69749639  0.83510463  0.71246083     0.19000
H1506       H  0.72945346  0.73609899  0.70238570     0.19000
C1507       C  0.85245240  0.92871521  0.68766957    -0.06800
C1508       C  0.86406070  0.92283605  0.70515226    -0.18000
C1509       C  0.90184467  0.94264882  0.71062885     0.10400
C1510       C  0.92901735  0.96922774  0.69840748    -0.06800
C1511       C  0.91759317  0.97490306  0.68093690    -0.18000
C1512       C  0.88006499  0.95455705  0.67528777     0.10400
S1513       S  0.91328194  0.93309232  0.73344669    -0.33000
S1514       S  0.87022567  0.96105212  0.65161669    -0.33000
H1515       H  0.84499176  0.92267970  0.64841564     0.28400
H1516       H  0.94515149  0.96865264  0.73632431     0.28400
H1517       H  0.84345482  0.90308174  0.71483185     0.19000
H1518       H  0.93847644  0.99435578  0.67125140     0.19000
C1519       C  0.71784795  0.94925587  0.62567361    -0.06800
C1520       C  0.69440189  0.92832451  0.64052713    -0.18000
C1521       C  0.70711407  0.91429131  0.65483079     0.10400
C1522       C  0.74383673  0.91990266  0.65409360    -0.06800
C1523       C  0.76720928  0.94101817  0.63929541    -0.18000
C1524       C  0.75478170  0.95545943  0.62518526     0.10400
S1525       S  0.67596852  0.89173750  0.67415029    -0.33000
S1526       S  0.78718504  0.98008880  0.60657273    -0.33000
H1527       H  0.76051380  0.96136125  0.59243137     0.28400
H1528       H  0.70445530  0.90709515  0.68771603     0.28400
H1529       H  0.66626472  0.92388108  0.64135794     0.19000
H1530       H  0.79528573  0.94544538  0.63832376     0.19000
C1531       C  0.62450923  0.03552154  0.61865202    -0.06800
C1532       C  0.58551779  0.01594356  0.62194162    -0.18000
C1533       C  0.56859036  0.03157685  0.63288437     0.10400
C1534       C  0.59118165  0.06727661  0.64110259    -0.06800
C1535       C  0.62997358  0.08644229  0.63784290    -0.18000
C1536       C  0.64661353  0.07167769  0.62651088     0.10400
S1537       S  0.51823367  0.00536376  0.63514916    -0.33000
S1538       S  0.69598108  0.10194623  0.62186465    -0.33000
H1539       H  0.69236446  0.09513831  0.60260036     0.28400
H1540       H  0.51363214  0.03678872  0.63524516     0.28400
H1541       H  0.56806151  0.98847077  0.61582342     0.19000
H1542       H  0.64767299  0.11402655  0.64383324     0.19000
C1543       C  0.42266748  0.72523152  0.47773211    -0.06800
C1544       C  0.44606378  0.73239763  0.46233639    -0.18000
C1545       C  0.48533566  0.75161120  0.46430558     0.10400
C1546       C  0.50153454  0.76369539  0.48216267    -0.06800
C1547       C  0.47782196  0.75736613  0.49740356    -0.18000
C1548       C  0.43880473  0.73819177  0.49543513     0.10400
S1549       S  0.51411580  0.76212283  0.44378949    -0.33000
S1550       S  0.41137156  0.73126222  0.51612505    -0.33000
H1551       H  0.37955621  0.69742254  0.51074647     0.28400
H1552       H  0.48485967  0.74007723  0.43130437     0.28400
H1553       H  0.43339803  0.72302678  0.44874900     0.19000
H1554       H  0.48966026  0.76642333  0.51115307     0.19000
C1555       C  0.61154051  0.84966413  0.51950422    -0.06800
C1556       C  0.64746697  0.88128602  0.51736863    -0.18000
C1557       C  0.66168896  0.91104856  0.53014578     0.10400
C1558       C  0.63991540  0.90909544  0.54577719    -0.06800
C1559       C  0.60447836  0.87698860  0.54812306    -0.18000
C1560       C  0.59046234  0.84718608  0.53550028     0.10400
S1561       S  0.70666757  0.95153669  0.52494475    -0.33000
S1562       S  0.54627642  0.80608797  0.54126796    -0.33000
H1563       H  0.55566089  0.78040669  0.53390313     0.28400
H1564       H  0.69516609  0.97751772  0.52889008     0.28400
H1565       H  0.66387023  0.88373573  0.50516021     0.19000
H1566       H  0.58779956  0.87457133  0.56021196     0.19000
C1567       C  0.72865570  0.08937338  0.55330673    -0.06800
C1568       C  0.76740019  0.10792306  0.54958366    -0.18000
C1569       C  0.78540182  0.14174042  0.53949312     0.10400
C1570       C  0.76417990  0.15720477  0.53236950    -0.06800
C1571       C  0.72535222  0.13807114  0.53579250    -0.18000
C1572       C  0.70767477  0.10524677  0.54638576     0.10400
S1573       S  0.83564227  0.16468389  0.53726207    -0.33000
S1574       S  0.65869052  0.08676927  0.55147939    -0.33000
H1575       H  0.66279504  0.08285184  0.57063008     0.28400
H1576       H  0.84181875  0.20044234  0.54186108     0.28400
H1577       H  0.78401450  0.09643882  0.55491798     0.19000
H1578       H  0.70850503  0.14943848  0.53062838     0.19000
C1579       C  0.91034183  0.28457869  0.46018551    -0.06800
C1580       C  0.90819554  0.30888902  0.47300489    -0.18000
C1581       C  0.88291991  0.29525792  0.48782517     0.10400
C1582       C  0.85789178  0.25610369  0.48977343    -0.06800
C1583       C  0.86081106  0.23163865  0.47731763    -0.18000
C1584       C  0.88636196  0.24537266  0.46249571     0.10400
S1585       S  0.88497368  0.32958408  0.50400717    -0.33000
S1586       S  0.88494033  0.21143075  0.44633211    -0.33000
H1587       H  0.88752018  0.23240351  0.43041052     0.28400
H1588       H  0.87586830  0.30625679  0.51970879     0.28400
H1589       H  0.92699398  0.33889846  0.47172014     0.19000
H1590       H  0.84156834  0.20169702  0.47845726     0.19000
C1591       C  0.03367978  0.43483859  0.39312859    -0.06800
C1592       C  0.01603179  0.43847787  0.37725272    -0.18000
C1593       C  0.03470258  0.46977362  0.36544948     0.10400
C1594       C  0.07151243  0.49913063  0.36998509    -0.06800
C1595       C  0.08771927  0.49618785  0.38668296    -0.18000
C1596       C  0.06946481  0.46466452  0.39814196     0.10400
S1597       S  0.01122020  0.46830991  0.34409588    -0.33000
S1598       S  0.09372590  0.46394646  0.41890557    -0.33000
H1599       H  0.06119246  0.44151683  0.42941454     0.28400
H1600       H  0.04221186  0.47604386  0.33290521     0.28400
H1601       H  0.98871204  0.41545598  0.37322012     0.19000
H1602       H  0.11535854  0.51844511  0.39082014     0.19000
C1603       C  0.08773626  0.36137313  0.45006323    -0.06800
C1604       C  0.12176750  0.38149092  0.44042746    -0.18000
C1605       C  0.15608182  0.40021177  0.44989569     0.10400
C1606       C  0.15664212  0.39920113  0.46950215    -0.06800
C1607       C  0.12288080  0.37696507  0.47909303    -0.18000
C1608       C  0.08851684  0.35787953  0.46958649     0.10400
S1609       S  0.19818088  0.42513524  0.43618749    -0.33000
S1610       S  0.04676578  0.32947825  0.48308069    -0.33000
H1611       H  0.02776813  0.30261123  0.46908153     0.28400
H1612       H  0.22129372  0.41958369  0.44858256     0.28400
H1613       H  0.12157470  0.38392476  0.42543270     0.19000
H1614       H  0.12313220  0.37540003  0.49412421     0.19000
C1615       C  0.82187484  0.10198010  0.30705481    -0.06800
C1616       C  0.81458193  0.12524095  0.29580575    -0.18000
C1617       C  0.78155243  0.11070192  0.28522104     0.10400
C1618       C  0.75490025  0.07170613  0.28573670    -0.06800
C1619       C  0.76223190  0.04870759  0.29731686    -0.18000
C1620       C  0.79500194  0.06331779  0.30799558     0.10400
S1621       S  0.77567995  0.14354733  0.27130286    -0.33000
S1622       S  0.80051854  0.03110849  0.32275045    -0.33000
H1623       H  0.82028291  0.05721674  0.33693136     0.28400
H1624       H  0.73940526  0.13149152  0.27809296     0.28400
H1625       H  0.83517696  0.15490971  0.29495611     0.19000
H1626       H  0.74232508  0.01885954  0.29805427     0.19000
C1627       C  0.93538825  0.09601896  0.32052184    -0.06800
C1628       C  0.95747461  0.09730164  0.33573650    -0.18000
C1629       C  0.97710980  0.07789372  0.33550911     0.10400
C1630       C  0.97440869  0.05629569  0.31981736    -0.06800
C1631       C  0.95256337  0.05495651  0.30459839    -0.18000
C1632       C  0.93376245  0.07514226  0.30458365     0.10400
S1633       S  0.00408978  0.07939941  0.35563792    -0.33000
S1634       S  0.91016059  0.07463937  0.28339631    -0.33000
H1635       H  0.92131614  0.11289434  0.28428287     0.28400
H1636       H  0.00099546  0.10714527  0.36540760     0.28400
H1637       H  0.95865959  0.11284080  0.34806411     0.19000
H1638       H  0.95113411  0.03896584  0.29238250     0.19000
C1639       C  0.91872313  0.19277193  0.35045378    -0.06800
C1640       C  0.93543588  0.18865944  0.36659930    -0.18000
C1641       C  0.94870973  0.21540965  0.38074813     0.10400
C1642       C  0.94692664  0.24846187  0.37866591    -0.06800
C1643       C  0.92933556  0.25234365  0.36272528    -0.18000
C1644       C  0.91532910  0.22499677  0.34861490     0.10400
S1645       S  0.96559495  0.20430973  0.40151765    -0.33000
S1646       S  0.89510925  0.23377377  0.32839093    -0.33000
H1647       H  0.90970699  0.21880307  0.31559738     0.28400
H1648       H  0.94675254  0.21588967  0.41365927     0.28400
H1649       H  0.93725260  0.16362565  0.36851562     0.19000
H1650       H  0.92742135  0.27734372  0.36097570     0.19000
C1651       C  0.87851592  0.63391455  0.53361503    -0.06800
C1652       C  0.89147128  0.61162848  0.54185828    -0.18000
C1653       C  0.92272054  0.62675866  0.55350324     0.10400
C1654       C  0.94341636  0.66576874  0.55664996    -0.06800
C1655       C  0.93089484  0.68846941  0.54865837    -0.18000
C1656       C  0.89866365  0.67313524  0.53724045     0.10400
S1657       S  0.93321623  0.59412450  0.56479640    -0.33000
S1658       S  0.88396678  0.70425303  0.52788099    -0.33000
H1659       H  0.90984707  0.73670216  0.53760856     0.28400
H1660       H  0.94155045  0.61227937  0.58216094     0.28400
H1661       H  0.87670314  0.58159861  0.53961494     0.19000
H1662       H  0.94675320  0.71837862  0.55121632     0.19000
C1663       C  0.75601751  0.66042566  0.46150144    -0.06800
C1664       C  0.79459809  0.67307866  0.46158026    -0.18000
C1665       C  0.81003918  0.65893515  0.47438955     0.10400
C1666       C  0.78656610  0.63210846  0.48771707    -0.06800
C1667       C  0.74831048  0.62085129  0.48807766    -0.18000
C1668       C  0.73301999  0.63512571  0.47540351     0.10400
S1669       S  0.85908797  0.67404740  0.47203209    -0.33000
S1670       S  0.68418445  0.62087686  0.47804381    -0.33000
H1671       H  0.68849776  0.65544198  0.47241447     0.28400
H1672       H  0.85460257  0.63846427  0.47529123     0.28400
H1673       H  0.81245135  0.69253055  0.45096585     0.19000
H1674       H  0.73012500  0.60078966  0.49841088     0.19000
C1675       C  0.61188286  0.62331633  0.38876678    -0.06800
C1676       C  0.57871045  0.59986144  0.39853366    -0.18000
C1677       C  0.54395237  0.58126525  0.38940199     0.10400
C1678       C  0.54222694  0.58619808  0.37008594    -0.06800
C1679       C  0.57556015  0.60795132  0.36016255    -0.18000
C1680       C  0.61034448  0.62632676  0.36925715     0.10400
S1681       S  0.50273020  0.55269423  0.40321707    -0.33000
S1682       S  0.65168663  0.65318717  0.35523077    -0.33000
H1683       H  0.67576121  0.64695135  0.36657748     0.28400
H1684       H  0.48118669  0.52806112  0.38885769     0.28400
H1685       H  0.57966557  0.59721263  0.41348568     0.19000
H1686       H  0.57437433  0.61151771  0.34529749     0.19000
C1687       C  0.65934453  0.74128145  0.44912878    -0.06800
C1688       C  0.67884347  0.77923887  0.45448316    -0.18000
C1689       C  0.66087711  0.79510619  0.46438401     0.10400
C1690       C  0.62272503  0.77237154  0.46958992    -0.06800
C1691       C  0.60348460  0.73456482  0.46412845    -0.18000
C1692       C  0.62083880  0.71913363  0.45374081     0.10400
S1693       S  0.68755452  0.84473104  0.46901697    -0.33000
S1694       S  0.59124329  0.67142593  0.44592240    -0.33000
H1695       H  0.60571873  0.67851926  0.42773184     0.28400
H1696       H  0.65769561  0.85092403  0.46530411     0.28400
H1697       H  0.70814828  0.79674981  0.45079330     0.19000
H1698       H  0.57414934  0.71673921  0.46770901     0.19000
C1699       C  0.93487333  0.73709682  0.30680076    -0.06800
C1700       C  0.91159590  0.70556326  0.29585048    -0.18000
C1701       C  0.92647776  0.68827835  0.28467932     0.10400
C1702       C  0.96570979  0.70206442  0.28466480    -0.06800
C1703       C  0.98856324  0.73268671  0.29629240    -0.18000
C1704       C  0.97374411  0.74991612  0.30736432     0.10400
S1705       S  0.89396029  0.65001082  0.27020239    -0.33000
S1706       S  0.00601408  0.78751256  0.32236319    -0.33000
H1707       H  0.98001051  0.77964990  0.33672558     0.28400
H1708       H  0.91417767  0.66644841  0.25379652     0.28400
H1709       H  0.88175400  0.69541470  0.29527024     0.19000
H1710       H  0.01850865  0.74341904  0.29689418     0.19000
C1711       C  0.97481629  0.93572670  0.31763276    -0.06800
C1712       C  0.95863553  0.91827000  0.33451395    -0.18000
C1713       C  0.94293792  0.87963736  0.33682183     0.10400
C1714       C  0.94244062  0.85737683  0.32170984    -0.06800
C1715       C  0.95858388  0.87499287  0.30475189    -0.18000
C1716       C  0.97436327  0.91380082  0.30250716     0.10400
S1717       S  0.92609953  0.86118058  0.35976600    -0.33000
S1718       S  0.99266967  0.93359437  0.27994322    -0.33000
H1719       H  0.98674141  0.96408471  0.28146119     0.28400
H1720       H  0.93926930  0.83578665  0.35942106     0.28400
H1721       H  0.95957393  0.93516680  0.34624098     0.19000
H1722       H  0.95790498  0.85829833  0.29300055     0.19000
C1723       C  0.83849949  0.74223859  0.34705270    -0.06800
C1724       C  0.82126037  0.76354859  0.35068885    -0.18000
C1725       C  0.79394349  0.75344179  0.36444356     0.10400
C1726       C  0.78334924  0.72130208  0.37545173    -0.06800
C1727       C  0.79857184  0.69852485  0.37109632    -0.18000
C1728       C  0.82552110  0.70830444  0.35700631     0.10400
S1729       S  0.77360235  0.78277380  0.36694968    -0.33000
S1730       S  0.84340745  0.67724390  0.35328995    -0.33000
H1731       H  0.83431714  0.67284492  0.33424556     0.28400
H1732       H  0.73656765  0.75240009  0.36832863     0.28400
H1733       H  0.82948865  0.78897439  0.34288123     0.19000
H1734       H  0.79008908  0.67320330  0.37904281     0.19000
C1735       C  0.75951305  0.27122807  0.51812870    -0.06800
C1736       C  0.76165001  0.29350122  0.50286563    -0.18000
C1737       C  0.74338023  0.31403613  0.50292843     0.10400
C1738       C  0.72258655  0.31278881  0.51867141    -0.06800
C1739       C  0.72054328  0.29096803  0.53402953    -0.18000
C1740       C  0.73932900  0.27077171  0.53409810     0.10400
S1741       S  0.74701852  0.34057034  0.48231602    -0.33000
S1742       S  0.73827310  0.24717348  0.55535504    -0.33000
H1743       H  0.77622942  0.25714930  0.55442286     0.28400
H1744       H  0.71081607  0.33558658  0.48347075     0.28400
H1745       H  0.77692391  0.29426291  0.49049747     0.19000
H1746       H  0.70508414  0.29057392  0.54625785     0.19000
C1747       C  0.72750775  0.43574993  0.51851528    -0.06800
C1748       C  0.72325736  0.45265507  0.50255979    -0.18000
C1749       C  0.74364195  0.49163168  0.50016207     0.10400
C1750       C  0.76844072  0.51463582  0.51440330    -0.06800
C1751       C  0.77287727  0.49733091  0.53031660    -0.18000
C1752       C  0.75273858  0.45834381  0.53252597     0.10400
S1753       S  0.73946162  0.51049853  0.47817707    -0.33000
S1754       S  0.76006148  0.43926393  0.55363038    -0.33000
H1755       H  0.72337326  0.40832168  0.55481108     0.28400
H1756       H  0.70790612  0.47768783  0.47148183     0.28400
H1757       H  0.70458014  0.43492333  0.49166281     0.19000
H1758       H  0.79178859  0.51428834  0.54133447     0.19000
C1759       C  0.40689079  0.27323091  0.52873700    -0.06800
C1760       C  0.42829895  0.30383353  0.54073427    -0.18000
C1761       C  0.41168390  0.31854050  0.55223291     0.10400
C1762       C  0.37237921  0.30265267  0.55203272    -0.06800
C1763       C  0.35067869  0.27218898  0.54024040    -0.18000
C1764       C  0.36738415  0.25804172  0.52826723     0.10400
S1765       S  0.44225705  0.35676134  0.56741042    -0.33000
S1766       S  0.33660688  0.22239825  0.51209811    -0.33000
H1767       H  0.35942743  0.24093017  0.49665638     0.28400
H1768       H  0.41750048  0.34429022  0.58260845     0.28400
H1769       H  0.45847416  0.31631109  0.54155570     0.19000
H1770       H  0.32054029  0.26038688  0.53973851     0.19000
C1771       C  0.52645841  0.28307777  0.51090985    -0.06800
C1772       C  0.54323043  0.30399703  0.52711230    -0.18000
C1773       C  0.58176631  0.32058444  0.53031081     0.10400
C1774       C  0.60449869  0.31690277  0.51690256    -0.06800
C1775       C  0.58807013  0.29635782  0.50066187    -0.18000
C1776       C  0.54957285  0.27995881  0.49735527     0.10400
S1777       S  0.60001928  0.34498365  0.55203269    -0.33000
S1778       S  0.53252752  0.25753191  0.47511902    -0.33000
H1779       H  0.50787811  0.27125670  0.47254288     0.28400
H1780       H  0.62895038  0.33670607  0.55377139     0.28400
H1781       H  0.52606011  0.30647593  0.53772384     0.19000
H1782       H  0.60565768  0.29422962  0.49015694     0.19000
C1783       C  0.38112147  0.11958158  0.46055841    -0.06800
C1784       C  0.40865883  0.12333695  0.47322938    -0.18000
C1785       C  0.42212939  0.15079273  0.48713840     0.10400
C1786       C  0.40877255  0.17620179  0.48820263    -0.06800
C1787       C  0.37990111  0.17131195  0.47615116    -0.18000
C1788       C  0.36616788  0.14360334  0.46230956     0.10400
S1789       S  0.45574215  0.15130992  0.50336086    -0.33000
S1790       S  0.33169418  0.14242776  0.44650399    -0.33000
H1791       H  0.34833402  0.13775714  0.43047059     0.28400
H1792       H  0.44450839  0.16491113  0.51844955     0.28400
H1793       H  0.41947612  0.10436920  0.47245198     0.19000
H1794       H  0.36959428  0.19071382  0.47672246     0.19000
C1795       C  0.39847597  0.99219134  0.38930010    -0.06800
C1796       C  0.43770214  0.01201118  0.38694333    -0.18000
C1797       C  0.45612524  0.99626765  0.37735593     0.10400
C1798       C  0.43498622  0.95989388  0.36954916    -0.06800
C1799       C  0.39577737  0.94064075  0.37158058    -0.18000
C1800       C  0.37750793  0.95583866  0.38145011     0.10400
S1801       S  0.50659481  0.02333934  0.37642724    -0.33000
S1802       S  0.32748300  0.92605415  0.38424167    -0.33000
H1803       H  0.32850986  0.93133140  0.40361013     0.28400
H1804       H  0.51150808  0.99270041  0.38014469     0.28400
H1805       H  0.45428914  0.03979578  0.39287928     0.19000
H1806       H  0.37896545  0.91280493  0.36571926     0.19000
C1807       C  0.28119924  0.94041905  0.45163540    -0.06800
C1808       C  0.25980905  0.90653206  0.44201082    -0.18000
C1809       C  0.24273399  0.87208177  0.45136025     0.10400
C1810       C  0.24702893  0.87125595  0.47079430    -0.06800
C1811       C  0.26659239  0.90516664  0.48057682    -0.18000
C1812       C  0.28360662  0.93968189  0.47123815     0.10400
S1813       S  0.21637867  0.83007031  0.43770801    -0.33000
S1814       S  0.30809821  0.98168217  0.48509447    -0.33000
H1815       H  0.30000350  0.00396299  0.47339706     0.28400
H1816       H  0.19106593  0.80879779  0.45187711     0.28400
H1817       H  0.25757059  0.90676765  0.42700525     0.19000
H1818       H  0.26979156  0.90472134  0.49551523     0.19000
C1819       C  0.29539707  0.21626757  0.30946549    -0.06800
C1820       C  0.33066169  0.22664394  0.30189042    -0.18000
C1821       C  0.35042104  0.25904329  0.29090140     0.10400
C1822       C  0.33448332  0.28166997  0.28706729    -0.06800
C1823       C  0.29975847  0.27172955  0.29522948    -0.18000
C1824       C  0.28041590  0.23989230  0.30640750     0.10400
S1825       S  0.39558816  0.26964452  0.28228153    -0.33000
S1826       S  0.23709979  0.23170709  0.31665624    -0.33000
H1827       H  0.24223120  0.21773871  0.33356004     0.28400
H1828       H  0.41344900  0.30762373  0.28755216     0.28400
H1829       H  0.34265654  0.20899559  0.30426185     0.19000
H1830       H  0.28716238  0.28882981  0.29283293     0.19000
C1831       C  0.17484186  0.10035456  0.32228734    -0.06800
C1832       C  0.15332046  0.07516719  0.33650409    -0.18000
C1833       C  0.11416736  0.05378511  0.33546321     0.10400
C1834       C  0.09552255  0.05744856  0.31986409    -0.06800
C1835       C  0.11668825  0.08179390  0.30545955    -0.18000
C1836       C  0.15596425  0.10247896  0.30624368     0.10400
S1837       S  0.08973208  0.02306990  0.35474491    -0.33000
S1838       S  0.17988553  0.12901337  0.28581505    -0.33000
H1839       H  0.20729947  0.11841389  0.28622173     0.28400
H1840       H  0.05769966  0.02661784  0.35381080     0.28400
H1841       H  0.16692155  0.07269187  0.34886570     0.19000
H1842       H  0.10246134  0.08394467  0.29325784     0.19000
C1843       C  0.31279561  0.08790182  0.38072759    -0.06800
C1844       C  0.28461420  0.09555417  0.38579007    -0.18000
C1845       C  0.27249695  0.11358550  0.37357396     0.10400
C1846       C  0.28811062  0.12360333  0.35557808    -0.06800
C1847       C  0.31710405  0.11706790  0.35062735    -0.18000
C1848       C  0.32931205  0.09898402  0.36290623     0.10400
S1849       S  0.23735750  0.12361009  0.38188630    -0.33000
S1850       S  0.36379811  0.08823190  0.35446501    -0.33000
H1851       H  0.34696889  0.05237950  0.36261014     0.28400
H1852       H  0.24963367  0.15633349  0.37124177     0.28400
H1853       H  0.27227331  0.08792881  0.39952480     0.19000
H1854       H  0.32879326  0.12412071  0.33674962     0.19000
loop_ 
_geom_bond_atom_site_label_1 
_geom_bond_atom_site_label_2 
_geom_bond_distance 
_geom_bond_site_symmetry_2 
_ccdc_geom_bond_type 
C1            N2   1.361       .  A
C1            N6   1.364       .  A
C1         C1819   1.486       .  S
N2            C3   1.358       .  A
C3            N4   1.356       .  A
C3         C1831   1.492       .  S
N4            C5   1.357       .  A
C5            N6   1.362       .  A
C5         C1846   1.478       .  S
In7           O9   2.231   1_545  S
In7          O10   2.278       .  S
In7          O18   2.252       .  S
In7          O12   2.244       .  S
In7          O14   2.259   1_545  S
In7          O15   2.257       .  S
In7          O16   2.244   1_545  S
In7          O19   2.242       .  S
C8         C1807   1.479       .  S
C8           O14   1.263       .  A
C8           O16   1.259       .  A
O9           C17   1.259   1_565  A
O10          C17   1.266       .  A
C11        C1843   1.482       .  S
C11          O18   1.262       .  A
C11          O12   1.264       .  A
C13        C1783   1.484       .  S
C13          O15   1.266       .  A
C13          O19   1.260       .  A
C17        C1795   1.494   1_545  S
C20          N21   1.361       .  A
C20          N25   1.364       .  A
C20        C1759   1.502       .  S
N21          C22   1.356       .  A
C22          N23   1.353       .  A
C22        C1771   1.483       .  S
N23          C24   1.355       .  A
C24          N25   1.363       .  A
C24        C1786   1.483       .  S
C26        C1747   1.475       .  S
C26          C27   1.401       .  A
C26          C31   1.401       .  A
C27          C28   1.400       .  A
C27          H32   1.084       .  S
C28        C1774   1.473       .  S
C28          C29   1.400       .  A
C29          C30   1.400       .  A
C29          H33   1.084       .  S
C30        C1738   1.470       .  S
C30          C31   1.402       .  A
C31          H34   1.084       .  S
C35          N36   1.369       .  A
C35          N40   1.364       .  A
C35        C1699   1.491       .  S
N36          C37   1.366       .  A
C37          N38   1.354       .  A
C37        C1723   1.500       .  S
N38          C39   1.350       .  A
C39          N40   1.358       .  A
C39        C1714   1.482       .  S
In41         O43   2.223       .  S
In41         O44   2.292       .  S
In41         O52   2.262       .  S
In41         O46   2.234       .  S
In41         O48   2.254       .  S
In41         O49   2.255       .  S
In41         O50   2.241       .  S
In41         O53   2.249       .  S
C42        C1675   1.476       .  S
C42          O48   1.262       .  A
C42          O50   1.260       .  A
O43          C51   1.256       .  A
O44          C51   1.266       .  A
C45        C1663   1.479       .  S
C45          O52   1.263       .  A
C45          O46   1.261       .  A
C47        C1726   1.492       .  S
C47          O49   1.266       .  A
C47          O53   1.262       .  A
C51        C1687   1.489       .  S
C54          N55   1.364       .  A
C54          N59   1.360       .  A
C54        C1651   1.499       .  S
N55          C56   1.363       .  A
C56          N57   1.357       .  A
C56        C1666   1.482       .  S
N57          C58   1.354       .  A
C58          N59   1.355       .  A
C58        C1750   1.489       .  S
C60          N61   1.363       .  A
C60          N65   1.358       .  A
C60        C1615   1.477       .  S
N61          C62   1.363       .  A
C62          N63   1.358       .  A
C62        C1639   1.486       .  S
N63          C64   1.356       .  A
C64          N65   1.356       .  A
C64        C1627   1.486       .  S
In66         O68   2.248   1_655  S
In66         O69   2.250   1_655  S
In66         O77   2.240       .  S
In66         O71   2.253       .  S
In66         O73   2.284       .  S
In66         O74   2.239       .  S
In66         O75   2.231   1_655  S
In66         O78   2.269       .  S
C67        C1591   1.478       .  S
C67          O73   1.263   1_455  A
C67          O75   1.256       .  A
O68          C76   1.262       .  A
O69          C76   1.263       .  A
C70        C1579   1.484       .  S
C70          O77   1.260       .  A
C70          O71   1.265       .  A
C72        C1642   1.487       .  S
C72          O74   1.260       .  A
C72          O78   1.260       .  A
C76        C1603   1.479       .  S
C79          N80   1.368       .  A
C79          N84   1.361       .  A
C79        C1570   1.493       .  S
N80          C81   1.366       .  A
C81          N82   1.353       .  A
C81        C1582   1.485       .  S
N82          C83   1.350       .  A
C83          N84   1.354       .  A
C83        C1735   1.481       .  S
C85        C1711   1.475       .  S
C85          C86   1.403       .  A
C85          C90   1.402   1_655  A
C86          C87   1.404   1_565  A
C86          H91   1.084       .  S
C87        C1630   1.478       .  S
C87          C88   1.403   1_655  A
C88          C89   1.402       .  A
C88          H92   1.084       .  S
C89        C1834   1.477       .  S
C89          C90   1.402   1_545  A
C90          H93   1.084       .  S
C94          N95   1.365       .  A
C94          N99   1.361       .  A
C94        C1690   1.492       .  S
N95          C96   1.365       .  A
C96          N97   1.358       .  A
C96        C1555   1.487       .  S
N97          C98   1.356       .  A
C98          N99   1.356       .  A
C98        C1546   1.487       .  S
In100       O102   2.256       .  S
In100       O103   2.247       .  S
In100       O111   2.244       .  S
In100       O105   2.251       .  S
In100       O107   2.281       .  S
In100       O108   2.274   1_565  S
In100       O109   2.220   1_565  S
In100       O112   2.233   1_565  S
C101       C1531   1.489       .  S
C101        O107   1.265   1_545  A
C101        O109   1.259       .  A
O102        C110   1.263       .  A
O103        C110   1.264       .  A
C104       C1558   1.487       .  S
C104        O111   1.260       .  A
C104        O105   1.265       .  A
C106       C1567   1.491       .  S
C106        O108   1.265       .  A
C106        O112   1.259       .  A
C110       C1519   1.491       .  S
C113        N114   1.356       .  A
C113        N118   1.363       .  A
C113       C1495   1.476       .  S
N114        C115   1.355       .  A
C115        N116   1.359       .  A
C115       C1507   1.488       .  S
N116        C117   1.362       .  A
C117        N118   1.366       .  A
C117       C1522   1.493       .  S
C119        N120   1.359       .  A
C119        N124   1.360       .  A
C119       C1606   1.478       .  S
N120        C121   1.360       .  A
C121        N122   1.360       .  A
C121       C1483   1.485       .  S
N122        C123   1.360       .  A
C123        N124   1.358       .  A
C123       C1471   1.486       .  S
In125       O127   2.238       .  S
In125       O128   2.264       .  S
In125       O136   2.250       .  S
In125       O130   2.249       .  S
In125       O132   2.257       .  S
In125       O133   2.263       .  S
In125       O134   2.231       .  S
In125       O137   2.235       .  S
C126       C1459   1.490       .  S
C126        O132   1.263       .  A
C126        O134   1.262       .  A
O127        C135   1.259       .  A
O128        C135   1.264       .  A
C129       C1486   1.484       .  S
C129        O136   1.260       .  A
C129        O130   1.261       .  A
C131       C1762   1.479       .  S
C131        O133   1.264       .  A
C131        O137   1.261       .  A
C135       C1450   1.486       .  S
C138        N139   1.360       .  A
C138        N143   1.356       .  A
C138       C1423   1.483       .  S
N139        C140   1.364       .  A
C140        N141   1.362       .  A
C140       C1447   1.485       .  S
N141        C142   1.360       .  A
C142        N143   1.354       .  A
C142       C1438   1.486       .  S
C144        N145   1.360       .  A
C144        N149   1.358       .  A
C144       C1810   1.475       .  S
N145        C146   1.362       .  A
C146        N147   1.360       .  A
C146       C1411   1.497       .  S
N147        C148   1.359       .  A
C148        N149   1.356       .  A
C148       C1399   1.497       .  S
In150       O152   2.232       .  S
In150       O153   2.244       .  S
In150       O161   2.245       .  S
In150       O155   2.248       .  S
In150       O157   2.261       .  S
In150       O158   2.264   1_455  S
In150       O159   2.241   1_455  S
In150       O162   2.222       .  S
C151       C1387   1.493   1_455  S
C151        O157   1.263       .  A
C151        O159   1.261   1_455  A
O152        C160   1.261       .  A
O153        C160   1.263       .  A
C154       C1414   1.490       .  S
C154        O161   1.262       .  A
C154        O155   1.262       .  A
C156       C1654   1.479       .  S
C156        O158   1.264       .  A
C156        O162   1.260   1_655  A
C160       C1375   1.482       .  S
C163        N164   1.362       .  A
C163        N168   1.359       .  A
C163       C1354   1.484       .  S
N164        C165   1.361       .  A
C165        N166   1.358       .  A
C165       C1378   1.489       .  S
N166        C167   1.356       .  A
C167        N168   1.357       .  A
C167       C1363   1.476       .  S
C169       C1510   1.482       .  S
C169        C170   1.406   1_565  A
C169        C174   1.406       .  A
C170        C171   1.402   1_655  A
C170        H175   1.084       .  S
C171       C1435   1.474       .  S
C171        C172   1.398       .  A
C172        C173   1.399   1_545  A
C172        H176   1.084       .  S
C173       C1366   1.471       .  S
C173        C174   1.403   1_455  A
C174        H177   1.084       .  S
C178       C1474   1.478       .  S
C178        C179   1.402       .  A
C178        C183   1.403       .  A
C179        C180   1.403       .  A
C179        H184   1.084       .  S
C180       C1543   1.476       .  S
C180        C181   1.402       .  A
C181        C182   1.404       .  A
C181        H185   1.084       .  S
C182       C1402   1.480       .  S
C182        C183   1.405       .  A
C183        H186   1.084       .  S
C187        N188   1.359       .  A
C187        N192   1.362       .  A
C187       C1390   1.482       .  S
N188        C189   1.356       .  A
C189        N190   1.356       .  A
C189       C1327   1.484       .  S
N190        C191   1.358       .  A
C191        N192   1.364       .  A
C191       C1339   1.493       .  S
In193       O195   2.223       .  S
In193       O196   2.281       .  S
In193       O204   2.249       .  S
In193       O198   2.227   1_455  S
In193       O200   2.258   1_455  S
In193       O201   2.255       .  S
In193       O202   2.226       .  S
In193       O205   2.231       .  S
C194       C1315   1.485       .  S
C194        O200   1.264       .  A
C194        O202   1.261   1_655  A
O195        C203   1.258       .  A
O196        C203   1.266       .  A
C197       C1342   1.480       .  S
C197        O204   1.263   1_655  A
C197        O198   1.263       .  A
C199       C1303   1.484       .  S
C199        O201   1.267       .  A
C199        O205   1.260       .  A
C203       C1426   1.488       .  S
C206        N207   1.364       .  A
C206        N211   1.360       .  A
C206       C1279   1.476       .  S
N207        C208   1.362       .  A
C208        N209   1.353       .  A
C208       C1306   1.479       .  S
N209        C210   1.352       .  A
C210        N211   1.359       .  A
C210       C1294   1.497       .  S
C212        N213   1.359       .  A
C212        N217   1.366       .  A
C212       C1243   1.490       .  S
N213        C214   1.355       .  A
C214        N215   1.354       .  A
C214       C1255   1.484       .  S
N215        C216   1.358       .  A
C216        N217   1.366       .  A
C216       C1267   1.488       .  S
In218       O220   2.249       .  S
In218       O221   2.269       .  S
In218       O229   2.254       .  S
In218       O223   2.256   1_545  S
In218       O225   2.268   1_545  S
In218       O226   2.245       .  S
In218       O227   2.252   1_545  S
In218       O230   2.242       .  S
C219       C1351   1.486       .  S
C219        O225   1.261       .  A
C219        O227   1.258       .  A
O220        C228   1.258       .  A
O221        C228   1.261       .  A
C222       C1270   1.485       .  S
C222        O229   1.260   1_565  A
C222        O223   1.265       .  A
C224       C1219   1.486       .  S
C224        O226   1.266       .  A
C224        O230   1.262       .  A
C228       C1231   1.483       .  S
C231        N232   1.358       .  A
C231        N236   1.367       .  A
C231       C1534   1.486       .  S
N232        C233   1.350       .  A
C233        N234   1.352       .  A
C233       C1207   1.467       .  S
N234        C235   1.359       .  A
C235        N236   1.369       .  A
C235       C1222   1.489       .  S
C237        N238   1.361       .  A
C237        N242   1.357       .  A
C237       C1171   1.473       .  S
N238        C239   1.362       .  A
C239        N240   1.360       .  A
C239       C1195   1.490       .  S
N240        C241   1.357       .  A
C241        N242   1.355       .  A
C241       C1186   1.485       .  S
In243       O245   2.261       .  S
In243       O246   2.258       .  S
In243       O254   2.252       .  S
In243       O248   2.244       .  S
In243       O250   2.271       .  S
In243       O251   2.249       .  S
In243       O252   2.239       .  S
In243       O255   2.260       .  S
C244       C1498   1.492       .  S
C244        O250   1.262       .  A
C244        O252   1.259       .  A
O245        C253   1.260       .  A
O246        C253   1.261       .  A
C247       C1198   1.487       .  S
C247        O254   1.262       .  A
C247        O248   1.263       .  A
C249       C1147   1.492       .  S
C249        O251   1.262       .  A
C249        O255   1.261       .  A
C253       C1159   1.484       .  S
C256        N257   1.363       .  A
C256        N261   1.358       .  A
C256       C1462   1.475       .  S
N257        C258   1.364       .  A
C258        N259   1.360       .  A
C258       C1150   1.494       .  S
N259        C260   1.357       .  A
C260        N261   1.354       .  A
C260       C1138   1.488       .  S
C262       C1330   1.477       .  S
C262        C263   1.401       .  A
C262        C267   1.398       .  A
C263        C264   1.407       .  A
C263        H268   1.084       .  S
C264       C1210   1.486       .  S
C264        C265   1.407       .  A
C265        C266   1.404       .  A
C265        H269   1.084       .  S
C266       C1135   1.477       .  S
C266        C267   1.402       .  A
C267        H270   1.084       .  S
C271       C1258   1.473       .  S
C271        C272   1.399       .  A
C271        C276   1.399       .  A
C272        C273   1.405       .  A
C272        H277   1.083       .  S
C273       C1291   1.490       .  S
C273        C274   1.410       .  A
C274        C275   1.404       .  A
C274        H278   1.084       .  S
C275       C1183   1.479       .  S
C275        C276   1.401       .  A
C276        H279   1.084       .  S
C280        N281   1.363       .  A
C280        N285   1.359       .  A
C280       C1102   1.480       .  S
N281        C282   1.363   1_554  A
C282        N283   1.358   1_556  A
C282       C1123   1.488       .  S
N283        C284   1.355       .  A
C284        N285   1.357       .  A
C284       C1111   1.487       .  S
In286       O288   2.249       .  S
In286       O289   2.259       .  S
In286       O297   2.255       .  S
In286       O291   2.241       .  S
In286       O293   2.247       .  S
In286       O294   2.268       .  S
In286       O295   2.232       .  S
In286       O298   2.234       .  S
C287       C1174   1.488       .  S
C287        O293   1.262       .  A
C287        O295   1.262       .  A
O288        C296   1.260       .  A
O289        C296   1.264       .  A
C290       C1126   1.483       .  S
C290        O297   1.261       .  A
C290        O291   1.261       .  A
C292       C1087   1.493       .  S
C292        O294   1.264       .  A
C292        O298   1.260       .  A
C296       C1075   1.488       .  S
C299        N300   1.359       .  A
C299        N304   1.363       .  A
C299       C1234   1.489       .  S
N300        C301   1.357       .  A
C301        N302   1.359       .  A
C301       C1063   1.481       .  S
N302        C303   1.359       .  A
C303        N304   1.363       .  A
C303       C1078   1.488       .  S
C305        N306   1.359       .  A
C305        N310   1.366       .  A
C305       C1030   1.496       .  S
N306        C307   1.352       .  A
C307        N308   1.354       .  A
C307       C1039   1.479       .  S
N308        C309   1.357   1_554  A
C309        N310   1.367   1_556  A
C309       C1054   1.492       .  S
In311       O313   2.249       .  S
In311       O314   2.250       .  S
In311       O322   2.247       .  S
In311       O316   2.250       .  S
In311       O318   2.261   1_545  S
In311       O319   2.279       .  S
In311       O320   2.245       .  S
In311       O323   2.234       .  S
C312       C1018   1.478       .  S
C312        O318   1.262       .  A
C312        O320   1.258   1_565  A
O313        C321   1.262       .  A
O314        C321   1.265       .  A
C315       C1003   1.486       .  S
C315        O322   1.262       .  A
C315        O316   1.264       .  A
C317       C1246   1.493   1_545  S
C317        O319   1.265       .  A
C317        O323   1.258       .  A
C321       C1051   1.487       .  S
C324        N325   1.361       .  A
C324        N329   1.359       .  A
C324       C1318   1.479       .  S
N325        C326   1.361       .  A
C326        N327   1.359       .  A
C326       C1006   1.479       .  S
N327        C328   1.357       .  A
C328        N329   1.358       .  A
C328        C991   1.501       .  S
C330        C982   1.477       .  S
C330        C331   1.401   1_655  A
C330        C335   1.403       .  A
C331        C332   1.400   1_565  A
C331        H336   1.084       .  S
C332       C1066   1.475       .  S
C332        C333   1.402       .  A
C333        C334   1.407   1_455  A
C333        H337   1.084       .  S
C334        C994   1.487       .  S
C334        C335   1.407   1_545  A
C335        H338   1.084       .  S
C339        N340   1.361       .  A
C339        N344   1.358       .  A
C339        C946   1.477       .  S
N340        C341   1.362       .  A
C341        N342   1.358       .  A
C341        C967   1.483   1_554  S
N342        C343   1.356       .  A
C343        N344   1.357       .  A
C343        C955   1.481       .  S
In345       O347   2.248   1_455  S
In345       O348   2.243   1_455  S
In345       O356   2.251   1_455  S
In345       O350   2.239   1_455  S
In345       O352   2.253       .  S
In345       O353   2.269   1_455  S
In345       O354   2.239       .  S
In345       O357   2.230       .  S
C346        C931   1.471       .  S
C346        O352   1.261       .  A
C346        O354   1.259       .  A
O347        C355   1.262       .  A
O348        C355   1.264       .  A
C349        C919   1.482       .  S
C349        O356   1.263       .  A
C349        O350   1.263       .  A
C351       C1282   1.492       .  S
C351        O353   1.263   1_455  A
C351        O357   1.259       .  A
C355        C970   1.481       .  S
C358        N359   1.362       .  A
C358        N363   1.357       .  A
C358       C1162   1.476       .  S
N359        C360   1.364       .  A
C360        N361   1.362       .  A
C360        C922   1.493       .  S
N361        C362   1.360       .  A
C362        N363   1.356       .  A
C362        C979   1.486       .  S
C364       C1114   1.473       .  S
C364        C365   1.402       .  A
C364        C369   1.400       .  A
C365        C366   1.402       .  A
C365        H370   1.084       .  S
C366        C958   1.471       .  S
C366        C367   1.400       .  A
C367        C368   1.400       .  A
C367        H371   1.084       .  S
C368       C1042   1.469       .  S
C368        C369   1.400       .  A
C369        H372   1.084       .  S
C373        N374   1.361       .  A
C373        N378   1.358       .  A
C373        C886   1.476       .  S
N374        C375   1.363       .  A
C375        N376   1.358       .  A
C375        C907   1.486       .  S
N376        C377   1.357       .  A
C377        N378   1.356       .  A
C377        C895   1.485       .  S
In379       O381   2.247       .  S
In379       O382   2.254       .  S
In379       O390   2.259       .  S
In379       O384   2.263   1_545  S
In379       O386   2.285   1_545  S
In379       O387   2.255       .  S
In379       O388   2.232       .  S
In379       O391   2.240       .  S
C380        C871   1.482       .  S
C380        O386   1.265       .  A
C380        O388   1.259   1_565  A
O381        C389   1.261       .  A
O382        C389   1.262       .  A
C383        C862   1.491       .  S
C383        O390   1.260   1_565  A
C383        O384   1.265       .  A
C385       C1618   1.492       .  S
C385        O387   1.264       .  A
C385        O391   1.262       .  A
C389        C910   1.486       .  S
C392        N393   1.363       .  A
C392        N397   1.369       .  A
C392       C1798   1.496       .  S
N393        C394   1.356       .  A
C394        N395   1.352       .  A
C394        C847   1.485       .  S
N395        C396   1.355       .  A
C396        N397   1.368       .  A
C396        C859   1.494       .  S
C398        C898   1.473       .  S
C398        C399   1.402       .  A
C398        C403   1.399       .  A
C399        C400   1.402       .  A
C399        H404   1.084       .  S
C400        C823   1.481       .  S
C400        C401   1.406       .  A
C401        C402   1.405       .  A
C401        H405   1.084       .  S
C402        C835   1.479       .  S
C402        C403   1.402       .  A
C403        H406   1.084       .  S
C407        N408   1.357       .  A
C407        N412   1.363       .  A
C407        C799   1.478       .  S
N408        C409   1.354       .  A
C409        N410   1.357       .  A
C409        C838   1.486       .  S
N410        C411   1.359       .  A
C411        N412   1.365       .  A
C411        C811   1.491       .  S
In413       O415   2.237       .  S
In413       O416   2.245       .  S
In413       O424   2.243       .  S
In413       O418   2.245       .  S
In413       O420   2.279       .  S
In413       O421   2.271       .  S
In413       O422   2.222       .  S
In413       O425   2.222       .  S
C414        C787   1.493       .  S
C414        O420   1.268       .  A
C414        O422   1.259       .  A
O415        C423   1.262       .  A
O416        C423   1.267       .  A
C417        C775   1.484       .  S
C417        O424   1.263       .  A
C417        O418   1.267       .  A
C419       C1822   1.494       .  S
C419        O421   1.267       .  A
C419        O425   1.261       .  A
C423        C814   1.485       .  S
C426        N427   1.360       .  A
C426        N431   1.362       .  A
C426       C1678   1.472       .  S
N427        C428   1.359       .  A
C428        N429   1.356       .  A
C428        C763   1.489       .  S
N429        C430   1.356       .  A
C430        N431   1.361       .  A
C430        C778   1.486       .  S
C432        N433   1.366       .  A
C432        N437   1.361       .  A
C432        C739   1.487       .  S
N433        C434   1.365       .  A
C434        N435   1.359       .  A
C434        C751   1.499       .  S
N435        C436   1.356       .  A
C436        N437   1.357       .  A
C436        C826   1.490       .  S
In438       O440   2.248       .  S
In438       O441   2.249       .  S
In438       O449   2.259       .  S
In438       O443   2.258   1_455  S
In438       O445   2.276   1_455  S
In438       O446   2.275       .  S
In438       O447   2.245       .  S
In438       O450   2.225       .  S
C439       C1702   1.501       .  S
C439        O445   1.265       .  A
C439        O447   1.262   1_655  A
O440        C448   1.262       .  A
O441        C448   1.264       .  A
C442        C754   1.490       .  S
C442        O449   1.260   1_655  A
C442        O443   1.265       .  A
C444        C727   1.495       .  S
C444        O446   1.265       .  A
C444        O450   1.261       .  A
C448        C715   1.486       .  S
C451        N452   1.360       .  A
C451        N456   1.364       .  A
C451       C1594   1.498       .  S
N452        C453   1.355       .  A
C453        N454   1.355       .  A
C453        C706   1.477       .  S
N454        C455   1.359       .  A
C455        N456   1.365       .  A
C455        C718   1.491       .  S
C457        C703   1.474       .  S
C457        C458   1.402       .  A
C457        C462   1.400       .  A
C458        C459   1.403       .  A
C458        H463   1.084       .  S
C459        C850   1.477       .  S
C459        C460   1.405       .  A
C460        C461   1.405       .  A
C460        H464   1.084       .  S
C461        C766   1.479       .  S
C461        C462   1.402       .  A
C462        H465   1.084       .  S
C466        N467   1.361       .  A
C466        N471   1.362       .  A
C466       C1090   1.480       .  S
N467        C468   1.359       .  A
C468        N469   1.354       .  A
C468        C682   1.488       .  S
N469        C470   1.355       .  A
C470        N471   1.362       .  A
C470        C691   1.485   1_556  S
In472       O474   2.234   1_455  S
In472       O475   2.270   1_455  S
In472       O483   2.234       .  S
In472       O477   2.260       .  S
In472       O479   2.266       .  S
In472       O480   2.246       .  S
In472       O481   2.235       .  S
In472       O484   2.258       .  S
C473        C742   1.494       .  S
C473        O479   1.266       .  A
C473        O481   1.263       .  A
O474        C482   1.259       .  A
O475        C482   1.262       .  A
C476        C694   1.479       .  S
C476        O483   1.258       .  A
C476        O477   1.264       .  A
C478        C667   1.488       .  S
C478        O480   1.263       .  A
C478        O484   1.262       .  A
C482       C1027   1.476       .  S
C485        N486   1.361       .  A
C485        N490   1.368       .  A
C485        C790   1.495       .  S
N486        C487   1.355       .  A
C487        N488   1.352       .  A
C487        C655   1.485       .  S
N488        C489   1.357       .  A
C489        N490   1.367       .  A
C489        C670   1.492       .  S
C491        N492   1.360       .  A
C491        N496   1.360       .  A
C491       C1015   1.473       .  S
N492        C493   1.357       .  A
C493        N494   1.355       .  A
C493        C634   1.473       .  S
N494        C495   1.356       .  A
C495        N496   1.361       .  A
C495        C643   1.484   1_556  S
In497       O499   2.224       .  S
In497       O500   2.273       .  S
In497       O508   2.234       .  S
In497       O502   2.244       .  S
In497       O504   2.252       .  S
In497       O505   2.245       .  S
In497       O506   2.231       .  S
In497       O509   2.243       .  S
C498        C802   1.491       .  S
C498        O504   1.264       .  A
C498        O506   1.263       .  A
O499        C507   1.259       .  A
O500        C507   1.266       .  A
C501        C646   1.479       .  S
C501        O508   1.260       .  A
C501        O502   1.265       .  A
C503        C619   1.483       .  S
C503        O505   1.266       .  A
C503        O509   1.261       .  A
C507        C943   1.491       .  S
C510        N511   1.363       .  A
C510        N515   1.368       .  A
C510        C874   1.500       .  S
N511        C512   1.355       .  A
C512        N513   1.352       .  A
C512        C607   1.481       .  S
N513        C514   1.357       .  A
C514        N515   1.367       .  A
C514        C622   1.491       .  S
C516        N517   1.364       .  A
C516        N521   1.357       .  A
C516        C730   1.481       .  S
N517        C518   1.368       .  A
C518        N519   1.359       .  A
C518        C595   1.493       .  S
N519        C520   1.354       .  A
C520        N521   1.353       .  A
C520        C583   1.469       .  S
In522       O524   2.229   1_565  S
In522       O525   2.261   1_565  S
In522       O533   2.240       .  S
In522       O527   2.240       .  S
In522       O529   2.264       .  S
In522       O530   2.249       .  S
In522       O531   2.225   1_565  S
In522       O534   2.249       .  S
C523        C883   1.490       .  S
C523        O529   1.264   1_545  A
C523        O531   1.262       .  A
O524        C532   1.261       .  A
O525        C532   1.264       .  A
C526        C574   1.480       .  S
C526        O533   1.260       .  A
C526        O527   1.263       .  A
C528        C598   1.484       .  S
C528        O530   1.264       .  A
C528        O534   1.260       .  A
C532       C1099   1.492       .  S
C535        N536   1.358       .  A
C535        N540   1.360       .  A
C535        C934   1.469       .  S
N536        C537   1.357       .  A
C537        N538   1.354       .  A
C537        C559   1.482       .  S
N538        C539   1.357   1_556  A
C539        N540   1.360   1_554  A
C539        C571   1.491       .  S
C541        C631   1.471       .  S
C541        C542   1.399       .  A
C541        C546   1.402       .  A
C542        C543   1.399       .  A
C542        H547   1.084       .  S
C543        C562   1.471       .  S
C543        C544   1.401       .  A
C544        C545   1.404       .  A
C544        H548   1.084       .  S
C545        C679   1.478       .  S
C545        C546   1.404       .  A
C546        H549   1.084       .  S
C550        C610   1.475       .  S
C550        C551   1.401   1_565  A
C550        C555   1.402       .  A
C551        C552   1.403   1_655  A
C551        H556   1.084       .  S
C552        C658   1.473       .  S
C552        C553   1.400       .  A
C553        C554   1.401   1_545  A
C553        H557   1.084       .  S
C554        C586   1.475       .  S
C554        C555   1.404   1_455  A
C555        H558   1.084       .  S
C559        C560   1.407       .  A
C559        C564   1.418   1_556  A
C560        C561   1.400       .  A
C560        H569   1.084       .  S
C561        C562   1.410       .  A
C561        S565   1.806       .  S
C562        C563   1.399       .  A
C563        C564   1.396   1_556  A
C563        H570   1.084   1_556  S
C564        S566   1.804       .  S
S565        H568   1.405       .  S
S566        H567   1.408       .  S
C571        C572   1.408       .  A
C571        C576   1.419       .  A
C572        C573   1.395       .  A
C572        H581   1.083       .  S
C573        C574   1.411       .  A
C573        S577   1.803       .  S
C574        C575   1.405       .  A
C575        C576   1.403       .  A
C575        H582   1.084       .  S
C576        S578   1.802       .  S
S577        H580   1.408       .  S
S578        H579   1.407       .  S
C583        C584   1.402       .  A
C583        C588   1.412       .  A
C584        C585   1.400       .  A
C584        H593   1.084       .  S
C585        C586   1.412       .  A
C585        S589   1.804       .  S
C586        C587   1.402       .  A
C587        C588   1.398       .  A
C587        H594   1.084       .  S
C588        S590   1.803       .  S
S589        H592   1.406       .  S
S590        H591   1.406       .  S
C595        C596   1.406       .  A
C595        C600   1.420       .  A
C596        C597   1.404       .  A
C596        H605   1.083       .  S
C597        C598   1.416       .  A
C597        S601   1.802       .  S
C598        C599   1.400       .  A
C599        C600   1.398       .  A
C599        H606   1.084       .  S
C600        S602   1.801       .  S
S601        H604   1.407       .  S
S602        H603   1.407       .  S
C607        C608   1.405       .  A
C607        C612   1.415       .  A
C608        C609   1.403       .  A
C608        H617   1.084       .  S
C609        C610   1.413       .  A
C609        S613   1.806       .  S
C610        C611   1.400       .  A
C611        C612   1.398       .  A
C611        H618   1.084       .  S
C612        S614   1.804       .  S
S613        H616   1.404       .  S
S614        H615   1.407       .  S
C619        C620   1.408       .  A
C619        C624   1.410       .  A
C620        C621   1.406       .  A
C620        H629   1.084       .  S
C621        C622   1.416       .  A
C621        S625   1.801       .  S
C622        C623   1.408       .  A
C623        C624   1.396       .  A
C623        H630   1.083       .  S
C624        S626   1.804       .  S
S625        H628   1.407       .  S
S626        H627   1.407       .  S
C631        C632   1.400       .  A
C631        C636   1.411       .  A
C632        C633   1.396       .  A
C632        H641   1.084   1_556  S
C633        C634   1.413       .  A
C633        S637   1.804   1_556  S
C634        C635   1.404       .  A
C635        C636   1.402       .  A
C635        H642   1.084       .  S
C636        S638   1.805       .  S
S637        H640   1.407       .  S
S638        H639   1.405       .  S
C643        C644   1.404       .  A
C643        C648   1.417       .  A
C644        C645   1.401       .  A
C644        H653   1.084       .  S
C645        C646   1.416       .  A
C645        S649   1.803       .  S
C646        C647   1.402       .  A
C647        C648   1.398       .  A
C647        H654   1.084       .  S
C648        S650   1.804       .  S
S649        H652   1.408       .  S
S650        H651   1.407   1_554  S
C655        C656   1.408       .  A
C655        C660   1.417       .  A
C656        C657   1.401       .  A
C656        H665   1.084       .  S
C657        C658   1.410       .  A
C657        S661   1.806       .  S
C658        C659   1.400       .  A
C659        C660   1.401       .  A
C659        H666   1.083       .  S
C660        S662   1.810       .  S
S661        H664   1.405       .  S
S662        H663   1.407       .  S
C667        C668   1.409       .  A
C667        C672   1.413       .  A
C668        C669   1.408       .  A
C668        H677   1.084       .  S
C669        C670   1.415       .  A
C669        S673   1.801       .  S
C670        C671   1.407       .  A
C671        C672   1.397       .  A
C671        H678   1.084       .  S
C672        S674   1.803       .  S
S673        H676   1.407       .  S
S674        H675   1.408       .  S
C679        C680   1.400       .  A
C679        C684   1.410       .  A
C680        C681   1.401       .  A
C680        H689   1.083   1_556  S
C681        C682   1.420       .  A
C681        S685   1.811   1_556  S
C682        C683   1.408       .  A
C683        C684   1.401       .  A
C683        H690   1.083       .  S
C684        S686   1.804       .  S
S685        H688   1.407       .  S
S686        H687   1.407       .  S
C691        C692   1.404       .  A
C691        C696   1.417       .  A
C692        C693   1.401       .  A
C692        H701   1.084       .  S
C693        C694   1.415       .  A
C693        S697   1.804       .  S
C694        C695   1.401       .  A
C695        C696   1.401       .  A
C695        H702   1.084       .  S
C696        S698   1.804   1_554  S
S697        H700   1.407       .  S
S698        H699   1.407       .  S
C703        C704   1.402       .  A
C703        C708   1.411       .  A
C704        C705   1.399       .  A
C704        H713   1.084       .  S
C705        C706   1.413       .  A
C705        S709   1.804       .  S
C706        C707   1.405       .  A
C707        C708   1.401       .  A
C707        H714   1.084       .  S
C708        S710   1.806       .  S
S709        H712   1.407       .  S
S710        H711   1.405       .  S
C715        C716   1.406       .  A
C715        C720   1.413       .  A
C716        C717   1.404       .  A
C716        H725   1.084       .  S
C717        C718   1.416       .  A
C717        S721   1.802       .  S
C718        C719   1.408       .  A
C719        C720   1.400       .  A
C719        H726   1.084       .  S
C720        S722   1.803       .  S
S721        H724   1.407       .  S
S722        H723   1.408       .  S
C727        C728   1.406       .  A
C727        C732   1.420       .  A
C728        C729   1.395       .  A
C728        H737   1.083       .  S
C729        C730   1.411       .  A
C729        S733   1.805       .  S
C730        C731   1.405       .  A
C731        C732   1.409       .  A
C731        H738   1.084       .  S
C732        S734   1.799       .  S
S733        H736   1.407       .  S
S734        H735   1.408       .  S
C739        C740   1.405   1_655  A
C739        C744   1.414       .  A
C740        C741   1.407       .  A
C740        H749   1.084       .  S
C741        C742   1.418       .  A
C741        S745   1.800       .  S
C742        C743   1.407   1_455  A
C743        C744   1.400       .  A
C743        H750   1.084       .  S
C744        S746   1.804       .  S
S745        H748   1.407       .  S
S746        H747   1.407       .  S
C751        C752   1.409       .  A
C751        C756   1.419       .  A
C752        C753   1.399       .  A
C752        H761   1.084       .  S
C753        C754   1.412       .  A
C753        S757   1.802       .  S
C754        C755   1.408   1_655  A
C755        C756   1.408   1_455  A
C755        H762   1.084       .  S
C756        S758   1.801   1_655  S
S757        H760   1.408       .  S
S758        H759   1.407   1_455  S
C763        C764   1.408       .  A
C763        C768   1.420       .  A
C764        C765   1.404       .  A
C764        H773   1.084       .  S
C765        C766   1.412       .  A
C765        S769   1.805       .  S
C766        C767   1.399       .  A
C767        C768   1.397       .  A
C767        H774   1.084       .  S
C768        S770   1.804       .  S
S769        H772   1.406       .  S
S770        H771   1.408       .  S
C775        C776   1.402       .  A
C775        C780   1.416       .  A
C776        C777   1.399       .  A
C776        H785   1.084       .  S
C777        C778   1.416       .  A
C777        S781   1.804       .  S
C778        C779   1.405       .  A
C779        C780   1.404       .  A
C779        H786   1.084       .  S
C780        S782   1.802       .  S
S781        H784   1.407       .  S
S782        H783   1.407       .  S
C787        C788   1.408       .  A
C787        C792   1.418       .  A
C788        C789   1.409       .  A
C788        H797   1.083       .  S
C789        C790   1.418       .  A
C789        S793   1.801       .  S
C790        C791   1.405       .  A
C791        C792   1.397       .  A
C791        H798   1.084       .  S
C792        S794   1.804       .  S
S793        H796   1.407       .  S
S794        H795   1.408       .  S
C799        C800   1.402       .  A
C799        C804   1.412       .  A
C800        C801   1.405       .  A
C800        H809   1.084       .  S
C801        C802   1.420       .  A
C801        S805   1.800       .  S
C802        C803   1.406       .  A
C803        C804   1.397       .  A
C803        H810   1.084       .  S
C804        S806   1.805       .  S
S805        H808   1.408       .  S
S806        H807   1.407       .  S
C811        C812   1.406       .  A
C811        C816   1.419       .  A
C812        C813   1.404       .  A
C812        H821   1.084       .  S
C813        C814   1.415       .  A
C813        S817   1.799       .  S
C814        C815   1.402       .  A
C815        C816   1.399       .  A
C815        H822   1.084       .  S
C816        S818   1.804       .  S
S817        H820   1.407       .  S
S818        H819   1.408       .  S
C823        C824   1.403       .  A
C823        C828   1.411       .  A
C824        C825   1.405       .  A
C824        H833   1.084       .  S
C825        C826   1.419       .  A
C825        S829   1.802       .  S
C826        C827   1.407       .  A
C827        C828   1.397       .  A
C827        H834   1.084       .  S
C828        S830   1.804       .  S
S829        H832   1.407       .  S
S830        H831   1.406       .  S
C835        C836   1.401       .  A
C835        C840   1.413       .  A
C836        C837   1.401       .  A
C836        H845   1.084       .  S
C837        C838   1.419       .  A
C837        S841   1.803       .  S
C838        C839   1.406       .  A
C839        C840   1.397       .  A
C839        H846   1.084       .  S
C840        S842   1.805       .  S
S841        H844   1.407       .  S
S842        H843   1.406       .  S
C847        C848   1.407       .  A
C847        C852   1.418       .  A
C848        C849   1.404       .  A
C848        H857   1.084       .  S
C849        C850   1.411       .  A
C849        S853   1.804       .  S
C850        C851   1.399       .  A
C851        C852   1.397       .  A
C851        H858   1.084       .  S
C852        S854   1.804       .  S
S853        H856   1.406       .  S
S854        H855   1.407       .  S
C859        C860   1.406       .  A
C859        C864   1.421       .  A
C860        C861   1.407       .  A
C860        H869   1.084       .  S
C861        C862   1.418       .  A
C861        S865   1.802   1_565  S
C862        C863   1.402       .  A
C863        C864   1.400       .  A
C863        H870   1.084       .  S
C864        S866   1.805       .  S
S865        H868   1.407       .  S
S866        H867   1.407       .  S
C871        C872   1.405       .  A
C871        C876   1.410       .  A
C872        C873   1.411       .  A
C872        H881   1.084       .  S
C873        C874   1.422       .  A
C873        S877   1.801       .  S
C874        C875   1.408       .  A
C875        C876   1.396       .  A
C875        H882   1.083       .  S
C876        S878   1.806       .  S
S877        H880   1.407       .  S
S878        H879   1.407       .  S
C883        C884   1.406       .  A
C883        C888   1.420       .  A
C884        C885   1.395       .  A
C884        H893   1.084       .  S
C885        C886   1.410       .  A
C885        S889   1.804       .  S
C886        C887   1.403       .  A
C887        C888   1.407       .  A
C887        H894   1.084       .  S
C888        S890   1.801       .  S
S889        H892   1.407       .  S
S890        H891   1.408       .  S
C895        C896   1.408       .  A
C895        C900   1.416       .  A
C896        C897   1.401       .  A
C896        H905   1.084       .  S
C897        C898   1.410       .  A
C897        S901   1.805       .  S
C898        C899   1.400       .  A
C899        C900   1.400       .  A
C899        H906   1.083       .  S
C900        S902   1.808       .  S
S901        H904   1.405       .  S
S902        H903   1.407       .  S
C907        C908   1.406       .  A
C907        C912   1.413       .  A
C908        C909   1.401       .  A
C908        H917   1.083       .  S
C909        C910   1.414       .  A
C909        S913   1.803       .  S
C910        C911   1.406       .  A
C911        C912   1.402       .  A
C911        H918   1.084       .  S
C912        S914   1.802       .  S
S913        H916   1.408       .  S
S914        H915   1.407       .  S
C919        C920   1.402       .  A
C919        C924   1.414       .  A
C920        C921   1.400       .  A
C920        H929   1.084   1_655  S
C921        C922   1.418       .  A
C921        S925   1.803   1_655  S
C922        C923   1.408       .  A
C923        C924   1.405       .  A
C923        H930   1.084       .  S
C924        S926   1.803       .  S
S925        H928   1.408   1_455  S
S926        H927   1.407       .  S
C931        C932   1.403       .  A
C931        C936   1.413       .  A
C932        C933   1.400       .  A
C932        H941   1.084       .  S
C933        C934   1.411       .  A
C933        S937   1.804       .  S
C934        C935   1.402       .  A
C935        C936   1.399       .  A
C935        H942   1.084       .  S
C936        S938   1.804       .  S
S937        H940   1.406       .  S
S938        H939   1.407       .  S
C943        C944   1.408       .  A
C943        C948   1.419       .  A
C944        C945   1.406       .  A
C944        H953   1.083       .  S
C945        C946   1.412       .  A
C945        S949   1.803       .  S
C946        C947   1.400       .  A
C947        C948   1.398       .  A
C947        H954   1.084       .  S
C948        S950   1.803       .  S
S949        H952   1.406       .  S
S950        H951   1.408       .  S
C955        C956   1.406       .  A
C955        C960   1.416       .  A
C956        C957   1.399       .  A
C956        H965   1.084       .  S
C957        C958   1.409       .  A
C957        S961   1.804       .  S
C958        C959   1.401       .  A
C959        C960   1.397       .  A
C959        H966   1.084   1_554  S
C960        S962   1.803   1_554  S
S961        H964   1.406       .  S
S962        H963   1.407       .  S
C967        C968   1.405       .  A
C967        C972   1.415       .  A
C968        C969   1.399       .  A
C968        H977   1.084       .  S
C969        C970   1.413       .  A
C969        S973   1.803       .  S
C970        C971   1.404       .  A
C971        C972   1.402       .  A
C971        H978   1.084       .  S
C972        S974   1.802       .  S
S973        H976   1.407       .  S
S974        H975   1.407       .  S
C979        C980   1.405       .  A
C979        C984   1.419       .  A
C980        C981   1.399       .  A
C980        H989   1.084       .  S
C981        C982   1.412       .  A
C981        S985   1.804       .  S
C982        C983   1.400       .  A
C983        C984   1.402       .  A
C983        H990   1.084       .  S
C984        S986   1.801       .  S
S985        H988   1.406       .  S
S986        H987   1.407       .  S
C991        C992   1.413       .  A
C991        C996   1.423       .  A
C992        C993   1.402       .  A
C992       H1001   1.083       .  S
C993        C994   1.412       .  A
C993        S997   1.806   1_655  S
C994        C995   1.403       .  A
C995        C996   1.399       .  A
C995       H1002   1.084       .  S
C996        S998   1.801       .  S
S997       H1000   1.407   1_455  S
S998        H999   1.408       .  S
C1003      C1004   1.405       .  A
C1003      C1008   1.418       .  A
C1004      C1005   1.400       .  A
C1004      H1013   1.084       .  S
C1005      C1006   1.413       .  A
C1005      S1009   1.804       .  S
C1006      C1007   1.402       .  A
C1007      C1008   1.403       .  A
C1007      H1014   1.084       .  S
C1008      S1010   1.802       .  S
S1009      H1012   1.407       .  S
S1010      H1011   1.408       .  S
C1015      C1016   1.403       .  A
C1015      C1020   1.411       .  A
C1016      C1017   1.402       .  A
C1016      H1025   1.084       .  S
C1017      C1018   1.414       .  A
C1017      S1021   1.803       .  S
C1018      C1019   1.404       .  A
C1019      C1020   1.400       .  A
C1019      H1026   1.084       .  S
C1020      S1022   1.803       .  S
S1021      H1024   1.407   1_565  S
S1022      H1023   1.406       .  S
C1027      C1028   1.404       .  A
C1027      C1032   1.408       .  A
C1028      C1029   1.408       .  A
C1028      H1037   1.084       .  S
C1029      C1030   1.420       .  A
C1029      S1033   1.800       .  S
C1030      C1031   1.410       .  A
C1031      C1032   1.395       .  A
C1031      H1038   1.082       .  S
C1032      S1034   1.806       .  S
S1033      H1036   1.407   1_554  S
S1034      H1035   1.407       .  S
C1039      C1040   1.404       .  A
C1039      C1044   1.418       .  A
C1040      C1041   1.396       .  A
C1040      H1049   1.084   1_554  S
C1041      C1042   1.410       .  A
C1041      S1045   1.805   1_554  S
C1042      C1043   1.399       .  A
C1043      C1044   1.399       .  A
C1043      H1050   1.084       .  S
C1044      S1046   1.803       .  S
S1045      H1048   1.405       .  S
S1046      H1047   1.407       .  S
C1051      C1052   1.402       .  A
C1051      C1056   1.416       .  A
C1052      C1053   1.400       .  A
C1052      H1061   1.084       .  S
C1053      C1054   1.420       .  A
C1053      S1057   1.804       .  S
C1054      C1055   1.406       .  A
C1055      C1056   1.405       .  A
C1055      H1062   1.083       .  S
C1056      S1058   1.802       .  S
S1057      H1060   1.407   1_556  S
S1058      H1059   1.407       .  S
C1063      C1064   1.407       .  A
C1063      C1068   1.414       .  A
C1064      C1065   1.404       .  A
C1064      H1073   1.084       .  S
C1065      C1066   1.413       .  A
C1065      S1069   1.808       .  S
C1066      C1067   1.401       .  A
C1067      C1068   1.398       .  A
C1067      H1074   1.084       .  S
C1068      S1070   1.803       .  S
S1069      H1072   1.402       .  S
S1070      H1071   1.407       .  S
C1075      C1076   1.406       .  A
C1075      C1080   1.414       .  A
C1076      C1077   1.403       .  A
C1076      H1085   1.084       .  S
C1077      C1078   1.415       .  A
C1077      S1081   1.802       .  S
C1078      C1079   1.406       .  A
C1079      C1080   1.403       .  A
C1079      H1086   1.084       .  S
C1080      S1082   1.802       .  S
S1081      H1084   1.407       .  S
S1082      H1083   1.408       .  S
C1087      C1088   1.408       .  A
C1087      C1092   1.419       .  A
C1088      C1089   1.398       .  A
C1088      H1097   1.084       .  S
C1089      C1090   1.411       .  A
C1089      S1093   1.805       .  S
C1090      C1091   1.403       .  A
C1091      C1092   1.405       .  A
C1091      H1098   1.084       .  S
C1092      S1094   1.800       .  S
S1093      H1096   1.407       .  S
S1094      H1095   1.408       .  S
C1099      C1100   1.407       .  A
C1099      C1104   1.419       .  A
C1100      C1101   1.397       .  A
C1100      H1109   1.084       .  S
C1101      C1102   1.412       .  A
C1101      S1105   1.805       .  S
C1102      C1103   1.403       .  A
C1103      C1104   1.405       .  A
C1103      H1110   1.084       .  S
C1104      S1106   1.799       .  S
S1105      H1108   1.407   1_554  S
S1106      H1107   1.408       .  S
C1111      C1112   1.408       .  A
C1111      C1116   1.419       .  A
C1112      C1113   1.399       .  A
C1112      H1121   1.084       .  S
C1113      C1114   1.409       .  A
C1113      S1117   1.804       .  S
C1114      C1115   1.399       .  A
C1115      C1116   1.401       .  A
C1115      H1122   1.083   1_554  S
C1116      S1118   1.808   1_554  S
S1117      H1120   1.406       .  S
S1118      H1119   1.406       .  S
C1123      C1124   1.406       .  A
C1123      C1128   1.415       .  A
C1124      C1125   1.395       .  A
C1124      H1133   1.081       .  S
C1125      C1126   1.412       .  A
C1125      S1129   1.804       .  S
C1126      C1127   1.407       .  A
C1127      C1128   1.405       .  A
C1127      H1134   1.084       .  S
C1128      S1130   1.802   1_556  S
S1129      H1132   1.408       .  S
S1130      H1131   1.407       .  S
C1135      C1136   1.402       .  A
C1135      C1140   1.407       .  A
C1136      C1137   1.408       .  A
C1136      H1145   1.083       .  S
C1137      C1138   1.419       .  A
C1137      S1141   1.808       .  S
C1138      C1139   1.406       .  A
C1139      C1140   1.398       .  A
C1139      H1146   1.082       .  S
C1140      S1142   1.809       .  S
S1141      H1144   1.407       .  S
S1142      H1143   1.406       .  S
C1147      C1148   1.409       .  A
C1147      C1152   1.414       .  A
C1148      C1149   1.406       .  A
C1148      H1157   1.084       .  S
C1149      C1150   1.416       .  A
C1149      S1153   1.802       .  S
C1150      C1151   1.408       .  A
C1151      C1152   1.399       .  A
C1151      H1158   1.084       .  S
C1152      S1154   1.802       .  S
S1153      H1156   1.407       .  S
S1154      H1155   1.408       .  S
C1159      C1160   1.403       .  A
C1159      C1164   1.416       .  A
C1160      C1161   1.400       .  A
C1160      H1169   1.084       .  S
C1161      C1162   1.412       .  A
C1161      S1165   1.804       .  S
C1162      C1163   1.403       .  A
C1163      C1164   1.405       .  A
C1163      H1170   1.084       .  S
C1164      S1166   1.803       .  S
S1165      H1168   1.406       .  S
S1166      H1167   1.407       .  S
C1171      C1172   1.401       .  A
C1171      C1176   1.410       .  A
C1172      C1173   1.403       .  A
C1172      H1181   1.084       .  S
C1173      C1174   1.419       .  A
C1173      S1177   1.800       .  S
C1174      C1175   1.406       .  A
C1175      C1176   1.397       .  A
C1175      H1182   1.084       .  S
C1176      S1178   1.805       .  S
S1177      H1180   1.408       .  S
S1178      H1179   1.407       .  S
C1183      C1184   1.402       .  A
C1183      C1188   1.413       .  A
C1184      C1185   1.402       .  A
C1184      H1193   1.084       .  S
C1185      C1186   1.418       .  A
C1185      S1189   1.803       .  S
C1186      C1187   1.405       .  A
C1187      C1188   1.397       .  A
C1187      H1194   1.084       .  S
C1188      S1190   1.805       .  S
S1189      H1192   1.407       .  S
S1190      H1191   1.406       .  S
C1195      C1196   1.407       .  A
C1195      C1200   1.417       .  A
C1196      C1197   1.398       .  A
C1196      H1205   1.084       .  S
C1197      C1198   1.414       .  A
C1197      S1201   1.802       .  S
C1198      C1199   1.407       .  A
C1199      C1200   1.405       .  A
C1199      H1206   1.084       .  S
C1200      S1202   1.802       .  S
S1201      H1204   1.408       .  S
S1202      H1203   1.407       .  S
C1207      C1208   1.401       .  A
C1207      C1212   1.410       .  A
C1208      C1209   1.401       .  A
C1208      H1217   1.084       .  S
C1209      C1210   1.416       .  A
C1209      S1213   1.803       .  S
C1210      C1211   1.406       .  A
C1211      C1212   1.397       .  A
C1211      H1218   1.084       .  S
C1212      S1214   1.805       .  S
S1213      H1216   1.406       .  S
S1214      H1215   1.405       .  S
C1219      C1220   1.401       .  A
C1219      C1224   1.418       .  A
C1220      C1221   1.398       .  A
C1220      H1229   1.084       .  S
C1221      C1222   1.419       .  A
C1221      S1225   1.803       .  S
C1222      C1223   1.404       .  A
C1223      C1224   1.405       .  A
C1223      H1230   1.084       .  S
C1224      S1226   1.800   1_545  S
S1225      H1228   1.407       .  S
S1226      H1227   1.407       .  S
C1231      C1232   1.403       .  A
C1231      C1236   1.414       .  A
C1232      C1233   1.403       .  A
C1232      H1241   1.084       .  S
C1233      C1234   1.418       .  A
C1233      S1237   1.804       .  S
C1234      C1235   1.406       .  A
C1235      C1236   1.402       .  A
C1235      H1242   1.084       .  S
C1236      S1238   1.803       .  S
S1237      H1240   1.407       .  S
S1238      H1239   1.407       .  S
C1243      C1244   1.404       .  A
C1243      C1248   1.415       .  A
C1244      C1245   1.398       .  A
C1244      H1253   1.084       .  S
C1245      C1246   1.418       .  A
C1245      S1249   1.803       .  S
C1246      C1247   1.408   1_565  A
C1247      C1248   1.408   1_545  A
C1247      H1254   1.084       .  S
C1248      S1250   1.801   1_565  S
S1249      H1252   1.408       .  S
S1250      H1251   1.407   1_545  S
C1255      C1256   1.407       .  A
C1255      C1260   1.418       .  A
C1256      C1257   1.400       .  A
C1256      H1265   1.084       .  S
C1257      C1258   1.410       .  A
C1257      S1261   1.805       .  S
C1258      C1259   1.400       .  A
C1259      C1260   1.398       .  A
C1259      H1266   1.084       .  S
C1260      S1262   1.802       .  S
S1261      H1264   1.406       .  S
S1262      H1263   1.407       .  S
C1267      C1268   1.405       .  A
C1267      C1272   1.417       .  A
C1268      C1269   1.407       .  A
C1268      H1277   1.084       .  S
C1269      C1270   1.417       .  A
C1269      S1273   1.803   1_565  S
C1270      C1271   1.401       .  A
C1271      C1272   1.399       .  A
C1271      H1278   1.084       .  S
C1272      S1274   1.804       .  S
S1273      H1276   1.407       .  S
S1274      H1275   1.407       .  S
C1279      C1280   1.401       .  A
C1279      C1284   1.407       .  A
C1280      C1281   1.405       .  A
C1280      H1289   1.084       .  S
C1281      C1282   1.419       .  A
C1281      S1285   1.799   1_455  S
C1282      C1283   1.409       .  A
C1283      C1284   1.401       .  A
C1283      H1290   1.082       .  S
C1284      S1286   1.808       .  S
S1285      H1288   1.407       .  S
S1286      H1287   1.407       .  S
C1291      C1292   1.402       .  A
C1291      C1296   1.415       .  A
C1292      C1293   1.401       .  A
C1292      H1301   1.082       .  S
C1293      C1294   1.424       .  A
C1293      S1297   1.812       .  S
C1294      C1295   1.409       .  A
C1295      C1296   1.400       .  A
C1295      H1302   1.083       .  S
C1296      S1298   1.806       .  S
S1297      H1300   1.407       .  S
S1298      H1299   1.407       .  S
C1303      C1304   1.402       .  A
C1303      C1308   1.419       .  A
C1304      C1305   1.399       .  A
C1304      H1313   1.084       .  S
C1305      C1306   1.415       .  A
C1305      S1309   1.805       .  S
C1306      C1307   1.401       .  A
C1307      C1308   1.404       .  A
C1307      H1314   1.084       .  S
C1308      S1310   1.802   1_455  S
S1309      H1312   1.407       .  S
S1310      H1311   1.408   1_655  S
C1315      C1316   1.408       .  A
C1315      C1320   1.417       .  A
C1316      C1317   1.406       .  A
C1316      H1325   1.084       .  S
C1317      C1318   1.413       .  A
C1317      S1321   1.803       .  S
C1318      C1319   1.401       .  A
C1319      C1320   1.395       .  A
C1319      H1326   1.084       .  S
C1320      S1322   1.803   1_655  S
S1321      H1324   1.406       .  S
S1322      H1323   1.407       .  S
C1327      C1328   1.405       .  A
C1327      C1332   1.417       .  A
C1328      C1329   1.399       .  A
C1328      H1337   1.084       .  S
C1329      C1330   1.412       .  A
C1329      S1333   1.805       .  S
C1330      C1331   1.401       .  A
C1331      C1332   1.401       .  A
C1331      H1338   1.084       .  S
C1332      S1334   1.803       .  S
S1333      H1336   1.405       .  S
S1334      H1335   1.407       .  S
C1339      C1340   1.409       .  A
C1339      C1344   1.421       .  A
C1340      C1341   1.404   1_655  A
C1340      H1349   1.083       .  S
C1341      C1342   1.414   1_455  A
C1341      S1345   1.803       .  S
C1342      C1343   1.400       .  A
C1343      C1344   1.396       .  A
C1343      H1350   1.084       .  S
C1344      S1346   1.803       .  S
S1345      H1348   1.407       .  S
S1346      H1347   1.408       .  S
C1351      C1352   1.405       .  A
C1351      C1356   1.416       .  A
C1352      C1353   1.402       .  A
C1352      H1361   1.084       .  S
C1353      C1354   1.415       .  A
C1353      S1357   1.804       .  S
C1354      C1355   1.404       .  A
C1355      C1356   1.402       .  A
C1355      H1362   1.084       .  S
C1356      S1358   1.802       .  S
S1357      H1360   1.407       .  S
S1358      H1359   1.407       .  S
C1363      C1364   1.406       .  A
C1363      C1368   1.414       .  A
C1364      C1365   1.404       .  A
C1364      H1373   1.084       .  S
C1365      C1366   1.412       .  A
C1365      S1369   1.807       .  S
C1366      C1367   1.400       .  A
C1367      C1368   1.394       .  A
C1367      H1374   1.085       .  S
C1368      S1370   1.804       .  S
S1369      H1372   1.404       .  S
S1370      H1371   1.407       .  S
C1375      C1376   1.405       .  A
C1375      C1380   1.413       .  A
C1376      C1377   1.400       .  A
C1376      H1385   1.084       .  S
C1377      C1378   1.416       .  A
C1377      S1381   1.802       .  S
C1378      C1379   1.408       .  A
C1379      C1380   1.399       .  A
C1379      H1386   1.083       .  S
C1380      S1382   1.803       .  S
S1381      H1384   1.407       .  S
S1382      H1383   1.408       .  S
C1387      C1388   1.408       .  A
C1387      C1392   1.419   1_655  A
C1388      C1389   1.399       .  A
C1388      H1397   1.083       .  S
C1389      C1390   1.413       .  A
C1389      S1393   1.805       .  S
C1390      C1391   1.403       .  A
C1391      C1392   1.404   1_655  A
C1391      H1398   1.084   1_655  S
C1392      S1394   1.799       .  S
S1393      H1396   1.407       .  S
S1394      H1395   1.408       .  S
C1399      C1400   1.409       .  A
C1399      C1404   1.423       .  A
C1400      C1401   1.396       .  A
C1400      H1409   1.083       .  S
C1401      C1402   1.409       .  A
C1401      S1405   1.805       .  S
C1402      C1403   1.402       .  A
C1403      C1404   1.408       .  A
C1403      H1410   1.083       .  S
C1404      S1406   1.809       .  S
S1405      H1408   1.406       .  S
S1406      H1407   1.407       .  S
C1411      C1412   1.409       .  A
C1411      C1416   1.419       .  A
C1412      C1413   1.400       .  A
C1412      H1421   1.083       .  S
C1413      C1414   1.414       .  A
C1413      S1417   1.800       .  S
C1414      C1415   1.406       .  A
C1415      C1416   1.403       .  A
C1415      H1422   1.084       .  S
C1416      S1418   1.802       .  S
S1417      H1420   1.408       .  S
S1418      H1419   1.408       .  S
C1423      C1424   1.401       .  A
C1423      C1428   1.415       .  A
C1424      C1425   1.395       .  A
C1424      H1433   1.084       .  S
C1425      C1426   1.417       .  A
C1425      S1429   1.804   1_455  S
C1426      C1427   1.407       .  A
C1427      C1428   1.408       .  A
C1427      H1434   1.083       .  S
C1428      S1430   1.802       .  S
S1429      H1432   1.407   1_655  S
S1430      H1431   1.407       .  S
C1435      C1436   1.398       .  A
C1435      C1440   1.408       .  A
C1436      C1437   1.404       .  A
C1436      H1445   1.083       .  S
C1437      C1438   1.420       .  A
C1437      S1441   1.809       .  S
C1438      C1439   1.405       .  A
C1439      C1440   1.401       .  A
C1439      H1446   1.082       .  S
C1440      S1442   1.808       .  S
S1441      H1444   1.407       .  S
S1442      H1443   1.407       .  S
C1447      C1448   1.403       .  A
C1447      C1452   1.417       .  A
C1448      C1449   1.400       .  A
C1448      H1457   1.084       .  S
C1449      C1450   1.416       .  A
C1449      S1453   1.802       .  S
C1450      C1451   1.404       .  A
C1451      C1452   1.403       .  A
C1451      H1458   1.084       .  S
C1452      S1454   1.803       .  S
S1453      H1456   1.408       .  S
S1454      H1455   1.407       .  S
C1459      C1460   1.406       .  A
C1459      C1464   1.420       .  A
C1460      C1461   1.396       .  A
C1460      H1469   1.084       .  S
C1461      C1462   1.410       .  A
C1461      S1465   1.805       .  S
C1462      C1463   1.402       .  A
C1463      C1464   1.406       .  A
C1463      H1470   1.084       .  S
C1464      S1466   1.800       .  S
S1465      H1468   1.407       .  S
S1466      H1467   1.408       .  S
C1471      C1472   1.408       .  A
C1471      C1476   1.415       .  A
C1472      C1473   1.404       .  A
C1472      H1481   1.084       .  S
C1473      C1474   1.412       .  A
C1473      S1477   1.806       .  S
C1474      C1475   1.401       .  A
C1475      C1476   1.399       .  A
C1475      H1482   1.084       .  S
C1476      S1478   1.803       .  S
S1477      H1480   1.404       .  S
S1478      H1479   1.407       .  S
C1483      C1484   1.405       .  A
C1483      C1488   1.414       .  A
C1484      C1485   1.402       .  A
C1484      H1493   1.084       .  S
C1485      C1486   1.415       .  A
C1485      S1489   1.802       .  S
C1486      C1487   1.405       .  A
C1487      C1488   1.401       .  A
C1487      H1494   1.084       .  S
C1488      S1490   1.799       .  S
S1489      H1492   1.408       .  S
S1490      H1491   1.407       .  S
C1495      C1496   1.402       .  A
C1495      C1500   1.409       .  A
C1496      C1497   1.406       .  A
C1496      H1505   1.084       .  S
C1497      C1498   1.420       .  A
C1497      S1501   1.800       .  S
C1498      C1499   1.407       .  A
C1499      C1500   1.397       .  A
C1499      H1506   1.084       .  S
C1500      S1502   1.804       .  S
S1501      H1504   1.407       .  S
S1502      H1503   1.407       .  S
C1507      C1508   1.410       .  A
C1507      C1512   1.416       .  A
C1508      C1509   1.402       .  A
C1508      H1517   1.084       .  S
C1509      C1510   1.412       .  A
C1509      S1513   1.806       .  S
C1510      C1511   1.403       .  A
C1511      C1512   1.398       .  A
C1511      H1518   1.084       .  S
C1512      S1514   1.802       .  S
S1513      H1516   1.406       .  S
S1514      H1515   1.408       .  S
C1519      C1520   1.408       .  A
C1519      C1524   1.415       .  A
C1520      C1521   1.406       .  A
C1520      H1529   1.083       .  S
C1521      C1522   1.416       .  A
C1521      S1525   1.802       .  S
C1522      C1523   1.406       .  A
C1523      C1524   1.400       .  A
C1523      H1530   1.082       .  S
C1524      S1526   1.802       .  S
S1525      H1528   1.407       .  S
S1526      H1527   1.408       .  S
C1531      C1532   1.410       .  A
C1531      C1536   1.416       .  A
C1532      C1533   1.411       .  A
C1532      H1541   1.083   1_545  S
C1533      C1534   1.415       .  A
C1533      S1537   1.802       .  S
C1534      C1535   1.403       .  A
C1535      C1536   1.393       .  A
C1535      H1542   1.084       .  S
C1536      S1538   1.804       .  S
S1537      H1540   1.406       .  S
S1538      H1539   1.407       .  S
C1543      C1544   1.402       .  A
C1543      C1548   1.411       .  A
C1544      C1545   1.406       .  A
C1544      H1553   1.083       .  S
C1545      C1546   1.417       .  A
C1545      S1549   1.807       .  S
C1546      C1547   1.406       .  A
C1547      C1548   1.397       .  A
C1547      H1554   1.082       .  S
C1548      S1550   1.806       .  S
S1549      H1552   1.407       .  S
S1550      H1551   1.404       .  S
C1555      C1556   1.404       .  A
C1555      C1560   1.417       .  A
C1556      C1557   1.404       .  A
C1556      H1565   1.084       .  S
C1557      C1558   1.419       .  A
C1557      S1561   1.802       .  S
C1558      C1559   1.402       .  A
C1559      C1560   1.399       .  A
C1559      H1566   1.084       .  S
C1560      S1562   1.803       .  S
S1561      H1564   1.408       .  S
S1562      H1563   1.407       .  S
C1567      C1568   1.408       .  A
C1567      C1572   1.416       .  A
C1568      C1569   1.408       .  A
C1568      H1577   1.084       .  S
C1569      C1570   1.417       .  A
C1569      S1573   1.801       .  S
C1570      C1571   1.406       .  A
C1571      C1572   1.397       .  A
C1571      H1578   1.084       .  S
C1572      S1574   1.804       .  S
S1573      H1576   1.407       .  S
S1574      H1575   1.407       .  S
C1579      C1580   1.401       .  A
C1579      C1584   1.418       .  A
C1580      C1581   1.398       .  A
C1580      H1589   1.084       .  S
C1581      C1582   1.419       .  A
C1581      S1585   1.806       .  S
C1582      C1583   1.403       .  A
C1583      C1584   1.404       .  A
C1583      H1590   1.084       .  S
C1584      S1586   1.802       .  S
S1585      H1588   1.407       .  S
S1586      H1587   1.408       .  S
C1591      C1592   1.403       .  A
C1591      C1596   1.410       .  A
C1592      C1593   1.407       .  A
C1592      H1601   1.084   1_455  S
C1593      C1594   1.422       .  A
C1593      S1597   1.800       .  S
C1594      C1595   1.409       .  A
C1595      C1596   1.397       .  A
C1595      H1602   1.083       .  S
C1596      S1598   1.806       .  S
S1597      H1600   1.408       .  S
S1598      H1599   1.407       .  S
C1603      C1604   1.403       .  A
C1603      C1608   1.414       .  A
C1604      C1605   1.400       .  A
C1604      H1613   1.084       .  S
C1605      C1606   1.412       .  A
C1605      S1609   1.803       .  S
C1606      C1607   1.404       .  A
C1607      C1608   1.403       .  A
C1607      H1614   1.084       .  S
C1608      S1610   1.803       .  S
S1609      H1612   1.407       .  S
S1610      H1611   1.407       .  S
C1615      C1616   1.401       .  A
C1615      C1620   1.412       .  A
C1616      C1617   1.403       .  A
C1616      H1625   1.084       .  S
C1617      C1618   1.419       .  A
C1617      S1621   1.800       .  S
C1618      C1619   1.407       .  A
C1619      C1620   1.399       .  A
C1619      H1626   1.084       .  S
C1620      S1622   1.805       .  S
S1621      H1624   1.407       .  S
S1622      H1623   1.407       .  S
C1627      C1628   1.408       .  A
C1627      C1632   1.417       .  A
C1628      C1629   1.402       .  A
C1628      H1637   1.082       .  S
C1629      C1630   1.409       .  A
C1629      S1633   1.808   1_655  S
C1630      C1631   1.401       .  A
C1631      C1632   1.400       .  A
C1631      H1638   1.084       .  S
C1632      S1634   1.803       .  S
S1633      H1636   1.407       .  S
S1634      H1635   1.407       .  S
C1639      C1640   1.404       .  A
C1639      C1644   1.415       .  A
C1640      C1641   1.395       .  A
C1640      H1649   1.084       .  S
C1641      C1642   1.414       .  A
C1641      S1645   1.803       .  S
C1642      C1643   1.409       .  A
C1643      C1644   1.408       .  A
C1643      H1650   1.084       .  S
C1644      S1646   1.803       .  S
S1645      H1648   1.408       .  S
S1646      H1647   1.407       .  S
C1651      C1652   1.409       .  A
C1651      C1656   1.422       .  A
C1652      C1653   1.392       .  A
C1652      H1661   1.083       .  S
C1653      C1654   1.410       .  A
C1653      S1657   1.806       .  S
C1654      C1655   1.404       .  A
C1655      C1656   1.411       .  A
C1655      H1662   1.082       .  S
C1656      S1658   1.808       .  S
S1657      H1660   1.408       .  S
S1658      H1659   1.407       .  S
C1663      C1664   1.404       .  A
C1663      C1668   1.412       .  A
C1664      C1665   1.405       .  A
C1664      H1673   1.084       .  S
C1665      C1666   1.415       .  A
C1665      S1669   1.802       .  S
C1666      C1667   1.404       .  A
C1667      C1668   1.398       .  A
C1667      H1674   1.084       .  S
C1668      S1670   1.804       .  S
S1669      H1672   1.407       .  S
S1670      H1671   1.407       .  S
C1675      C1676   1.403       .  A
C1675      C1680   1.413       .  A
C1676      C1677   1.401       .  A
C1676      H1685   1.084       .  S
C1677      C1678   1.412       .  A
C1677      S1681   1.803       .  S
C1678      C1679   1.402       .  A
C1679      C1680   1.401       .  A
C1679      H1686   1.084       .  S
C1680      S1682   1.804       .  S
S1681      H1684   1.406       .  S
S1682      H1683   1.407       .  S
C1687      C1688   1.407       .  A
C1687      C1692   1.416       .  A
C1688      C1689   1.410       .  A
C1688      H1697   1.084       .  S
C1689      C1690   1.418       .  A
C1689      S1693   1.801       .  S
C1690      C1691   1.404       .  A
C1691      C1692   1.396       .  A
C1691      H1698   1.084       .  S
C1692      S1694   1.805       .  S
S1693      H1696   1.407       .  S
S1694      H1695   1.408       .  S
C1699      C1700   1.405       .  A
C1699      C1704   1.414       .  A
C1700      C1701   1.409       .  A
C1700      H1709   1.084       .  S
C1701      C1702   1.420       .  A
C1701      S1705   1.799       .  S
C1702      C1703   1.408       .  A
C1703      C1704   1.402       .  A
C1703      H1710   1.083   1_655  S
C1704      S1706   1.804   1_655  S
S1705      H1708   1.408       .  S
S1706      H1707   1.407   1_455  S
C1711      C1712   1.399       .  A
C1711      C1716   1.412       .  A
C1712      C1713   1.397       .  A
C1712      H1721   1.084       .  S
C1713      C1714   1.419       .  A
C1713      S1717   1.805       .  S
C1714      C1715   1.405       .  A
C1715      C1716   1.402       .  A
C1715      H1722   1.084       .  S
C1716      S1718   1.804       .  S
S1717      H1720   1.407       .  S
S1718      H1719   1.406       .  S
C1723      C1724   1.411       .  A
C1723      C1728   1.417       .  A
C1724      C1725   1.398       .  A
C1724      H1733   1.084       .  S
C1725      C1726   1.413       .  A
C1725      S1729   1.802       .  S
C1726      C1727   1.409       .  A
C1727      C1728   1.407       .  A
C1727      H1734   1.084       .  S
C1728      S1730   1.798       .  S
S1729      H1732   1.408       .  S
S1730      H1731   1.408       .  S
C1735      C1736   1.407       .  A
C1735      C1740   1.416       .  A
C1736      C1737   1.394       .  A
C1736      H1745   1.084       .  S
C1737      C1738   1.409       .  A
C1737      S1741   1.805       .  S
C1738      C1739   1.401       .  A
C1739      C1740   1.400       .  A
C1739      H1746   1.084       .  S
C1740      S1742   1.802       .  S
S1741      H1744   1.406       .  S
S1742      H1743   1.407       .  S
C1747      C1748   1.400       .  A
C1747      C1752   1.409       .  A
C1748      C1749   1.401       .  A
C1748      H1757   1.083       .  S
C1749      C1750   1.419       .  A
C1749      S1753   1.810       .  S
C1750      C1751   1.410       .  A
C1751      C1752   1.399       .  A
C1751      H1758   1.083       .  S
C1752      S1754   1.805       .  S
S1753      H1756   1.407       .  S
S1754      H1755   1.406       .  S
C1759      C1760   1.412       .  A
C1759      C1764   1.422       .  A
C1760      C1761   1.398       .  A
C1760      H1769   1.083       .  S
C1761      C1762   1.410       .  A
C1761      S1765   1.806       .  S
C1762      C1763   1.402       .  A
C1763      C1764   1.406       .  A
C1763      H1770   1.084       .  S
C1764      S1766   1.800       .  S
S1765      H1768   1.407       .  S
S1766      H1767   1.408       .  S
C1771      C1772   1.407       .  A
C1771      C1776   1.418       .  A
C1772      C1773   1.397       .  A
C1772      H1781   1.084       .  S
C1773      C1774   1.410       .  A
C1773      S1777   1.805       .  S
C1774      C1775   1.401       .  A
C1775      C1776   1.398       .  A
C1775      H1782   1.084       .  S
C1776      S1778   1.803       .  S
S1777      H1780   1.406       .  S
S1778      H1779   1.407       .  S
C1783      C1784   1.403       .  A
C1783      C1788   1.417       .  A
C1784      C1785   1.400       .  A
C1784      H1793   1.084       .  S
C1785      C1786   1.416       .  A
C1785      S1789   1.804       .  S
C1786      C1787   1.403       .  A
C1787      C1788   1.403       .  A
C1787      H1794   1.084       .  S
C1788      S1790   1.803       .  S
S1789      H1792   1.407       .  S
S1790      H1791   1.407       .  S
C1795      C1796   1.408   1_565  A
C1795      C1800   1.417       .  A
C1796      C1797   1.410   1_545  A
C1796      H1805   1.084       .  S
C1797      C1798   1.417       .  A
C1797      S1801   1.801   1_565  S
C1798      C1799   1.405       .  A
C1799      C1800   1.398       .  A
C1799      H1806   1.084       .  S
C1800      S1802   1.803       .  S
S1801      H1804   1.407   1_545  S
S1802      H1803   1.408       .  S
C1807      C1808   1.403       .  A
C1807      C1812   1.415       .  A
C1808      C1809   1.401       .  A
C1808      H1817   1.084       .  S
C1809      C1810   1.412       .  A
C1809      S1813   1.803       .  S
C1810      C1811   1.402       .  A
C1811      C1812   1.402       .  A
C1811      H1818   1.084       .  S
C1812      S1814   1.804       .  S
S1813      H1816   1.406       .  S
S1814      H1815   1.407   1_565  S
C1819      C1820   1.406       .  A
C1819      C1824   1.414       .  A
C1820      C1821   1.407       .  A
C1820      H1829   1.084       .  S
C1821      C1822   1.418       .  A
C1821      S1825   1.800       .  S
C1822      C1823   1.407       .  A
C1823      C1824   1.398       .  A
C1823      H1830   1.084       .  S
C1824      S1826   1.805       .  S
S1825      H1828   1.407       .  S
S1826      H1827   1.407       .  S
C1831      C1832   1.409       .  A
C1831      C1836   1.419       .  A
C1832      C1833   1.398       .  A
C1832      H1841   1.083       .  S
C1833      C1834   1.411       .  A
C1833      S1837   1.806       .  S
C1834      C1835   1.401       .  A
C1835      C1836   1.401       .  A
C1835      H1842   1.084       .  S
C1836      S1838   1.802       .  S
S1837      H1840   1.406       .  S
S1838      H1839   1.408       .  S
C1843      C1844   1.402       .  A
C1843      C1848   1.416       .  A
C1844      C1845   1.398       .  A
C1844      H1853   1.084       .  S
C1845      C1846   1.413       .  A
C1845      S1849   1.804       .  S
C1846      C1847   1.403       .  A
C1847      C1848   1.405       .  A
C1847      H1854   1.084       .  S
C1848      S1850   1.802       .  S
S1849      H1852   1.407       .  S
S1850      H1851   1.407       .  S
