geometry optimzed in LAMMPS
_audit_creation_date              2020-12-01 
_audit_creation_method            'lammps2cif' 
_symmetry_space_group_name_H-M    'P1' 
_symmetry_Int_Tables_number       1 
_symmetry_cell_setting            triclinic 
loop_ 
_symmetry_equiv_pos_as_xyz 
  x,y,z 
_cell_length_a                    35.10971355 
_cell_length_b                    29.98981563304798 
_cell_length_c                    22.72775165654618 
_cell_angle_alpha                 89.89202270183046 
_cell_angle_beta                  90.13042153480721 
_cell_angle_gamma                 112.86757188149072 
loop_ 
_atom_site_label 
_atom_site_type_symbol 
_atom_site_fract_x 
_atom_site_fract_y 
_atom_site_fract_z 
_atom_site_charge 
O1          O  0.28888039  0.07205856  0.34210740    -0.81500
O2          O  0.39656543  0.17382138  0.50792308    -0.66200
O3          O  0.34118799  0.13753468  0.41863981    -1.12800
C4          C  0.24560259  0.17565586  0.53683354     1.05300
O5          O  0.39187746  0.21749629  0.58220051    -0.79400
O6          O  0.32072153  0.13443334  0.59416034    -0.67000
Ni7        Ni  0.33833699  0.12930661  0.33498429     1.34900
C8          C  0.30323380  0.09613218  0.56401172     0.84100
O9          O  0.42491204  0.20280464  0.39776346    -0.80000
O10         O  0.38952696  0.18229008  0.31537624    -0.90300
C11         C  0.41409080  0.20470047  0.54741813     0.83700
O12         O  0.30973999  0.17251749  0.32994666    -0.68500
O13         O  0.27434151  0.19254982  0.57537244    -0.87700
C14         C  0.32780589  0.21694530  0.34468409     0.84500
C15         C  0.42386590  0.19890998  0.34231375     1.06000
H16         H  0.32530818  0.22532443  0.47842474     0.37900
O17         O  0.33171613  0.19811867  0.49055839    -1.10400
O18         O  0.29080167  0.09644721  0.51184920    -0.67100
Ni19       Ni  0.29261458  0.14286937  0.45344914     1.26300
O20         O  0.35789925  0.23140950  0.38144835    -0.67300
O21         O  0.24856986  0.15340692  0.49018537    -0.79600
C22         C  0.25596483  0.06119166  0.37160772     0.83900
O23         O  0.25220298  0.08772013  0.41310181    -0.66800
Ni24       Ni  0.33251112  0.20169786  0.57605694     1.27400
Ni25       Ni  0.37784634  0.20075211  0.44402931     1.26100
H26         H  0.34789853  0.11241271  0.43706639     0.38400
C27         C  0.99267698  0.45671503  0.34010679     0.79600
N28         N  0.45447075  0.45566625  0.36135794    -0.78700
C29         C  0.45152290  0.49789520  0.37560187     0.80800
N30         N  0.98495010  0.03654299  0.36232081    -0.78700
C31         C  0.02022442  0.03355603  0.34308425     0.82100
N32         N  0.02360398  0.49960333  0.32688283    -0.80400
C33         C  0.27105430  0.46748859  0.09873290     0.79600
N34         N  0.26971596  0.51270396  0.10020422    -0.78700
C35         C  0.30556106  0.05023060  0.58202623     0.82000
N36         N  0.33758808  0.04334527  0.55755410    -0.78700
C37         C  0.33566962  0.49796099  0.55541839     0.82100
N38         N  0.30458954  0.46210068  0.07505187    -0.80400
C39         C  0.16675023  0.23300714  0.05317849     0.79600
N40         N  0.14032047  0.20919306  0.00915777    -0.78700
C41         C  0.14712458  0.17481642  0.97747227     0.82000
N42         N  0.17620380  0.15337411  0.50603633    -0.78700
C43         C  0.20614547  0.18180806  0.54207602     0.82100
N44         N  0.20097855  0.22274311  0.06512405    -0.80400
C45         C  0.45583657  0.24049322  0.53475260     0.79600
N46         N  0.98849224  0.24860476  0.57051971    -0.78700
C47         C  0.02349725  0.28169113  0.05473250     0.82000
N48         N  0.02412129  0.30764310  0.00510534    -0.78700
C49         C  0.99769876  0.30293855  0.47027687     0.82100
N50         N  0.45944362  0.26725220  0.48577374    -0.80400
O51         O  0.20136940  0.41507471  0.08448985    -0.81500
O52         O  0.09200995  0.31355830  0.25133196    -0.66200
O53         O  0.14770676  0.34940472  0.16112898    -1.12800
C54         C  0.24287852  0.30830018  0.27555545     1.05300
O55         O  0.09669008  0.26823384  0.32380478    -0.79400
O56         O  0.16614347  0.35360187  0.33090936    -0.67000
Ni57       Ni  0.14964150  0.36029574  0.07770756     1.34900
C58         C  0.18609151  0.39096026  0.30025513     0.84100
O59         O  0.06322599  0.28796530  0.14212955    -0.80000
O60         O  0.09628756  0.31092057  0.05809451    -0.90300
C61         C  0.07435275  0.28228663  0.29053076     0.83700
O62         O  0.17496813  0.31414437  0.06999823    -0.68500
O63         O  0.21528225  0.29655417  0.31620497    -0.87700
C64         C  0.15717387  0.26982771  0.08562533     0.84500
C65         C  0.06288304  0.29387854  0.08714555     1.06000
H66         H  0.16055963  0.25850973  0.21992078     0.37900
O67         O  0.15572790  0.28685390  0.23150389    -1.10400
O68         O  0.20160141  0.38861974  0.25089763    -0.67100
Ni69       Ni  0.19578880  0.34061787  0.19283161     1.26300
O70         O  0.12703681  0.25505731  0.12244966    -0.67300
O71         O  0.23923529  0.32698695  0.22650507    -0.79600
C72         C  0.23431745  0.42335800  0.11328329     0.83900
O73         O  0.23726297  0.39426818  0.15208331    -0.66800
Ni74       Ni  0.15639516  0.28597285  0.31712913     1.27400
Ni75       Ni  0.10959369  0.28673016  0.18632017     1.26100
H76         H  0.14211177  0.37419343  0.18179618     0.38400
C77         C  0.49983456  0.04201434  0.09128969     0.79600
N78         N  0.03828740  0.04454766  0.10312537    -0.78700
C79         C  0.04784797  0.00668732  0.11865427     0.82000
N80         N  0.51836427  0.46625686  0.12185719    -0.78700
C81         C  0.47824225  0.45867169  0.11178146     0.82100
N82         N  0.46955394  0.99701807  0.09495678    -0.80400
C83         C  0.21951859  0.01967527  0.35032686     0.79600
N84         N  0.19250509  0.03056017  0.31615737    -0.78700
C85         C  0.16319782  0.99557698  0.28477420     0.82000
N86         N  0.16211950  0.45254848  0.27589495    -0.78700
C87         C  0.18546046  0.43885496  0.31344039     0.82100
N88         N  0.21584233  0.47376459  0.34489082    -0.80400
C89         C  0.03121340  0.24832651  0.27969928     0.79600
N90         N  0.02477550  0.22270115  0.22902720    -0.78700
C91         C  0.48779053  0.19366279  0.21668301     0.82000
N92         N  0.45607239  0.18682542  0.25380494    -0.78700
C93         C  0.46153537  0.21107896  0.30554463     0.82100
N94         N  0.50039735  0.24353804  0.32081910    -0.80400
C95         C  0.32048907  0.25447264  0.31010397     0.79600
N96         N  0.28521770  0.26362724  0.31471736    -0.78700
C97         C  0.28157710  0.30002025  0.28161552     0.82000
N98         N  0.31221677  0.32499671  0.24380396    -0.78700
C99         C  0.34660496  0.31566133  0.23817727     0.82100
N100        N  0.35086913  0.28078693  0.27221442    -0.80400
C101        C  0.48915528  0.08460641  0.09945871    -0.06100
C102        C  0.45223785  0.07840537  0.12878859    -0.33600
C103        C  0.44892986  0.11605534  0.16162423     0.35700
C104        C  0.48341063  0.16033067  0.16660956    -0.06500
C105        C  0.01727238  0.16457498  0.12738868    -0.33400
C106        C  0.01950972  0.12768931  0.09222853     0.35600
H107        H  0.42732077  0.04302645  0.13160044     0.16000
O108        O  0.41330583  0.10746233  0.19270492    -0.60900
H109        H  0.04420522  0.19794599  0.12988488     0.16000
O110        O  0.05514897  0.13574861  0.06149983    -0.61000
H111        H  0.04858596  0.14106057  0.02031948     0.43000
H112        H  0.41497311  0.08837201  0.22760726     0.42900
C113        C  0.14061506  0.00782963  0.23713394    -0.06100
C114        C  0.12985381  0.54862554  0.22815364    -0.33600
C115        C  0.09949275  0.55095542  0.18956314     0.35700
C116        C  0.08559952  0.01562146  0.15235917    -0.06500
C117        C  0.10870479  0.98795542  0.14058366    -0.33400
C118        C  0.13716065  0.98538029  0.18176809     0.35600
H119        H  0.13992466  0.57343817  0.26468134     0.16000
O120        O  0.08181933  0.58364041  0.20056949    -0.60900
H121        H  0.10356039  0.96696182  0.10042635     0.16000
O122        O  0.16103018  0.96007732  0.16794994    -0.61000
H123        H  0.18883180  0.98507216  0.15948300     0.43000
H124        H  0.05566524  0.56509052  0.22149445     0.42900
C125        C  0.37928422  0.34450886  0.19633738    -0.06100
C126        C  0.41988482  0.34751073  0.20373518    -0.33600
C127        C  0.45257210  0.38150593  0.17229552     0.35700
C128        C  0.44482940  0.41327205  0.13226180    -0.06500
C129        C  0.40368342  0.40602212  0.11986403    -0.33400
C130        C  0.37109093  0.37222621  0.15140202     0.35600
H131        H  0.42681444  0.32545926  0.23648448     0.16000
O132        O  0.49206079  0.38591495  0.18513944    -0.60900
H133        H  0.39675846  0.42877042  0.08809885     0.16000
O134        O  0.33141429  0.36715293  0.13836531    -0.61000
H135        H  0.32840171  0.39604702  0.15538469     0.43000
H136        H  0.49723625  0.36248326  0.15890783     0.42900
C137        C  0.11248781  0.12982337  0.45171768    -0.06100
C138        C  0.08837585  0.14792766  0.41751007    -0.33600
C139        C  0.06140326  0.11878017  0.37456023     0.35700
C140        C  0.05857162  0.07103574  0.36559667    -0.06500
C141        C  0.08547412  0.05490555  0.39620226    -0.33400
C142        C  0.11173702  0.08333610  0.43929671     0.35600
H143        H  0.08999130  0.18434361  0.42453572     0.16000
O144        O  0.03719202  0.13650424  0.34234651    -0.60900
H145        H  0.08354726  0.01818666  0.39112339     0.16000
O146        O  0.13413269  0.06357978  0.47220166    -0.61000
H147        H  0.15740680  0.06486581  0.44662679     0.43000
H148        H  0.01915659  0.14370037  0.37110065     0.42900
C149        C  0.00110307  0.41248883  0.34702296    -0.06100
C150        C  0.96679202  0.36872600  0.34813593    -0.33600
C151        C  0.94920507  0.33277057  0.90835510     0.35700
C152        C  0.00092612  0.33621059  0.41989561    -0.06500
C153        C  0.03784476  0.37658165  0.40991813    -0.33400
C154        C  0.03815128  0.41469467  0.37378805     0.35600
H155        H  0.91816786  0.36644811  0.85570767     0.16000
O156        O  0.91394010  0.30943397  0.94034936    -0.60900
H157        H  0.06567321  0.38076344  0.43402153     0.16000
O158        O  0.07321395  0.45620128  0.37185540    -0.61000
H159        H  0.08773955  0.45327224  0.33563766     0.43000
H160        H  0.41167171  0.32240204  0.94636363     0.42900
C161        C  0.42009608  0.49762913  0.41925955    -0.06100
C162        C  0.38742203  0.45385276  0.43462842    -0.33600
C163        C  0.36066862  0.45184771  0.48136738     0.35700
C164        C  0.36666206  0.49403809  0.51394044    -0.06500
C165        C  0.39847553  0.03891740  0.48538268    -0.33400
C166        C  0.42240760  0.04101141  0.43616516     0.35600
H167        H  0.38251318  0.42097581  0.41042729     0.16000
O168        O  0.32867367  0.41387850  0.99169365    -0.60900
H169        H  0.40418421  0.07259807  0.50821867     0.16000
O170        O  0.45120905  0.08529621  0.41963115    -0.61000
H171        H  0.47404242  0.09291383  0.44863643     0.43000
H172        H  0.33999085  0.39260489  0.01246536     0.42900
O173        O  0.28831987  0.07013655  0.84184128    -0.81500
O174        O  0.39615005  0.17255572  0.00922196    -0.66200
O175        O  0.34070845  0.13523482  0.91929523    -1.12800
C176        C  0.24503817  0.17703431  0.03344224     1.05300
O177        O  0.39050560  0.21612431  0.08310337    -0.79400
O178        O  0.31779949  0.13463910  0.09555783    -0.67000
Ni179      Ni  0.33801451  0.12680710  0.83567620     1.34900
C180        C  0.30158795  0.09588394  0.06575795     0.84100
O181        O  0.42482410  0.20013679  0.89878816    -0.80000
O182        O  0.38920841  0.17927794  0.81656217    -0.90300
C183        C  0.41324159  0.20382385  0.04862134     0.83700
O184        O  0.30990612  0.17044963  0.83025590    -0.68500
O185        O  0.27361320  0.19497675  0.07206754    -0.87700
C186        C  0.32825386  0.21491040  0.84468417     0.84500
C187        C  0.42352536  0.19560805  0.84336268     1.06000
H188        H  0.32486335  0.22349739  0.97665283     0.37900
O189        O  0.33117046  0.19648459  0.98984802    -1.10400
O190        O  0.29046596  0.09522813  0.01271891    -0.67100
Ni191      Ni  0.29194794  0.14074834  0.95337516     1.26300
O192        O  0.35854394  0.22939893  0.88108721    -0.67300
O193        O  0.24770196  0.15173249  0.98946008    -0.79600
C194        C  0.25508149  0.05934413  0.87038256     0.83900
O195        O  0.25133290  0.08515141  0.91288701    -0.66800
Ni196      Ni  0.33134226  0.20189275  0.07506953     1.27400
Ni197      Ni  0.37767281  0.19872260  0.94435719     1.26100
H198        H  0.34732599  0.11014742  0.93800189     0.38400
C199        C  0.98370173  0.44884955  0.83287724     0.79600
N200        N  0.45465347  0.45882814  0.86139089    -0.78700
C201        C  0.45269889  0.50153929  0.87584874     0.80800
N202        N  0.98546885  0.04411314  0.86299117    -0.78700
C203        C  0.02089198  0.04428814  0.83940796     0.82100
N204        N  0.01983971  0.48830037  0.83132156    -0.80400
C205        C  0.27043338  0.46477614  0.60104482     0.79600
N206        N  0.26875313  0.50977213  0.60165688    -0.78700
C207        C  0.30393914  0.05056970  0.08611720     0.82000
N208        N  0.33666603  0.04353717  0.06431261    -0.78700
C209        C  0.33760890  0.50147590  0.05687068     0.82100
N210        N  0.30332448  0.45889769  0.57578533    -0.80400
C211        C  0.16489206  0.22631069  0.56208376     0.79600
N212        N  0.13546886  0.19702468  0.52455424    -0.78700
C213        C  0.14126692  0.16032216  0.49643765     0.82000
N214        N  0.17978822  0.16414853  0.99102082    -0.78700
C215        C  0.20686314  0.18694324  0.03375576     0.82100
N216        N  0.20107376  0.21949149  0.57015021    -0.80400
C217        C  0.45486402  0.24060453  0.03615238     0.79600
N218        N  0.98693319  0.24633626  0.07333753    -0.78700
C219        C  0.02628721  0.28317554  0.55587853     0.82000
N220        N  0.03039332  0.30992683  0.50605254    -0.78700
C221        C  0.98895643  0.29907804  0.97413070     0.82100
N222        N  0.45801337  0.26764870  0.98742707    -0.80400
O223        O  0.20189980  0.41060861  0.58613468    -0.81500
O224        O  0.09256051  0.31363505  0.75576748    -0.66200
O225        O  0.14771690  0.34748326  0.66461273    -1.12800
C226        C  0.24295313  0.30725641  0.78146824     1.05300
O227        O  0.09717470  0.26901441  0.82943270    -0.79400
O228        O  0.16872736  0.35174643  0.83971013    -0.67000
Ni229      Ni  0.15053394  0.35563912  0.58074973     1.34900
C230        C  0.18597315  0.38950824  0.80843487     0.84100
O231        O  0.06333163  0.28725588  0.64608840    -0.80000
O232        O  0.09771989  0.30573057  0.56261466    -0.90300
C233        C  0.07500349  0.28315746  0.79588906     0.83700
O234        O  0.17566214  0.30893929  0.57663236    -0.68500
O235        O  0.21462396  0.29203846  0.82086973    -0.87700
C236        C  0.15632871  0.26485877  0.59240686     0.84500
C237        C  0.06404908  0.29229463  0.59072701     1.06000
H238        H  0.16107388  0.25813702  0.72469747     0.37900
O239        O  0.15575798  0.28605126  0.73677788    -1.10400
O240        O  0.19838176  0.38793802  0.75662743    -0.67100
Ni241      Ni  0.19570940  0.34054626  0.69910169     1.26300
O242        O  0.12581249  0.25177922  0.62855167    -0.67300
O243        O  0.23976688  0.32906767  0.73468343    -0.79600
C244        C  0.23414280  0.42120267  0.61718248     0.83900
O245        O  0.23681594  0.39481766  0.65942726    -0.66800
Ni246      Ni  0.15641045  0.28396421  0.82243769     1.27400
Ni247      Ni  0.10938638  0.28543196  0.69130468     1.26100
H248        H  0.14159383  0.37278588  0.68313675     0.38400
C249        C  0.49606611  0.04036287  0.59125268     0.79600
N250        N  0.03645310  0.04541435  0.60275143    -0.78700
C251        C  0.04671801  0.00736712  0.61457374     0.82000
N252        N  0.51464983  0.46359204  0.62010155    -0.78700
C253        C  0.47465703  0.45570518  0.60824751     0.82100
N254        N  0.46679221  0.99472889  0.59581594    -0.80400
C255        C  0.21882017  0.01887603  0.84614408     0.79600
N256        N  0.19464879  0.03129014  0.80785635    -0.78700
C257        C  0.16761198  0.99755229  0.77210641     0.82000
N258        N  0.15881005  0.44949918  0.79214812    -0.78700
C259        C  0.18495607  0.43669111  0.82505228     0.82100
N260        N  0.21651737  0.47220567  0.85412632    -0.80400
C261        C  0.03165334  0.24949928  0.78629628     0.79600
N262        N  0.02453750  0.22242556  0.73670559    -0.78700
C263        C  0.48559819  0.19134250  0.71528860     0.82000
N264        N  0.45457132  0.18354062  0.75391625    -0.78700
C265        C  0.46069331  0.20743202  0.80601117     0.82100
N266        N  0.49945996  0.24037859  0.82028269    -0.80400
C267        C  0.32056956  0.25237478  0.81067590     0.79600
N268        N  0.28565368  0.26195493  0.81744009    -0.78700
C269        C  0.28166990  0.29870479  0.78558341     0.82000
N270        N  0.31168213  0.32366893  0.74691658    -0.78700
C271        C  0.34565091  0.31383222  0.73890295     0.82100
N272        N  0.35027240  0.27852349  0.77171961    -0.80400
C273        C  0.48452838  0.08272349  0.59580843    -0.06100
C274        C  0.44729297  0.07739395  0.62355416    -0.33600
C275        C  0.44479192  0.11531442  0.65722567     0.35700
C276        C  0.48023230  0.15866549  0.66392604    -0.06500
C277        C  0.01470883  0.16404254  0.63462629    -0.33400
C278        C  0.01621924  0.12799318  0.59734426     0.35600
H279        H  0.42186385  0.04235168  0.62529758     0.16000
O280        O  0.40894955  0.10788636  0.68720714    -0.60900
H281        H  0.04127839  0.19778056  0.63598917     0.16000
O282        O  0.05056782  0.13727809  0.56323178    -0.61000
H283        H  0.04386304  0.14878810  0.52521172     0.43000
H284        H  0.40880389  0.08691160  0.72108453     0.42900
C285        C  0.14553403  0.01066760  0.72390726    -0.06100
C286        C  0.12193548  0.54229213  0.74903118    -0.33600
C287        C  0.09454511  0.54689185  0.70682462     0.35700
C288        C  0.08606403  0.01592213  0.64459526    -0.06500
C289        C  0.10677440  0.98560473  0.63264437    -0.33400
C290        C  0.13741132  0.98428293  0.67080425     0.35600
H291        H  0.12743361  0.56312405  0.78930168     0.16000
O292        O  0.07650265  0.57945104  0.71631887    -0.60900
H293        H  0.09819863  0.96175014  0.59482539     0.16000
O294        O  0.15910846  0.95671852  0.65606582    -0.61000
H295        H  0.18678172  0.98031297  0.64422462     0.43000
H296        H  0.04836187  0.56009619  0.73113396     0.42900
C297        C  0.37713104  0.34216774  0.69509679    -0.06100
C298        C  0.41726163  0.34260188  0.69711648    -0.33600
C299        C  0.44905743  0.37560537  0.66312907     0.35700
C300        C  0.44111442  0.40985529  0.62750360    -0.06500
C301        C  0.40001812  0.40483584  0.61984297    -0.33400
C302        C  0.36821565  0.37153463  0.65296814     0.35600
H303        H  0.42465573  0.31916522  0.72738883     0.16000
O304        O  0.48816563  0.37625628  0.66882715    -0.60900
H305        H  0.39268527  0.42924151  0.59117015     0.16000
O306        O  0.32866580  0.36890842  0.64454739    -0.61000
H307        H  0.32771449  0.39804082  0.66402132     0.43000
H308        H  0.49106353  0.35612705  0.63591681     0.42900
C309        C  0.11986307  0.14826661  0.92858779    -0.06100
C310        C  0.08829609  0.16193253  0.90762873    -0.33600
C311        C  0.05800295  0.13155081  0.86897035     0.35700
C312        C  0.05922977  0.08688319  0.85184612    -0.06500
C313        C  0.09447998  0.07788131  0.86511436    -0.33400
C314        C  0.12438599  0.10755192  0.90315277     0.35600
H315        H  0.08579750  0.19474651  0.92342750     0.16000
O316        O  0.02667498  0.14458224  0.84940927    -0.60900
H317        H  0.09698363  0.04462058  0.85174686     0.16000
O318        O  0.15559467  0.09319300  0.91921396    -0.61000
H319        H  0.17689169  0.10612128  0.88815866     0.43000
H320        H  0.01573648  0.15539836  0.88436803     0.42900
C321        C  0.98448967  0.40027132  0.84350531    -0.06100
C322        C  0.94781902  0.36447884  0.86465916    -0.33600
C323        C  0.96593410  0.33170317  0.38576326     0.35700
C324        C  0.98718995  0.33003098  0.92414163    -0.06500
C325        C  0.02311555  0.35916207  0.89383709    -0.33400
C326        C  0.02206877  0.39446483  0.85386647     0.35600
H327        H  0.93817041  0.36608561  0.32730776     0.16000
O328        O  0.92902630  0.29390346  0.39358174    -0.60900
H329        H  0.05244584  0.35679599  0.90390435     0.16000
O330        O  0.05846414  0.42587746  0.83002939    -0.61000
H331        H  0.05984401  0.41259095  0.79053574     0.43000
H332        H  0.41366421  0.31983233  0.44309064     0.42900
C333        C  0.42148916  0.50190338  0.91950215    -0.06100
C334        C  0.38841350  0.45837771  0.93425688    -0.33600
C335        C  0.36201252  0.45618957  0.98138661     0.35700
C336        C  0.36863782  0.49797413  0.01511018    -0.06500
C337        C  0.40275981  0.03740074  0.00525042    -0.33400
C338        C  0.42976892  0.03960980  0.96012264     0.35600
H339        H  0.38294212  0.42569840  0.90932172     0.16000
O340        O  0.32768166  0.40935481  0.49240854    -0.60900
H341        H  0.40810786  0.07050775  0.02911480     0.16000
O342        O  0.46224625  0.08285736  0.95087738    -0.61000
H343        H  0.48546749  0.08097395  0.97421640     0.43000
H344        H  0.33919777  0.38907812  0.51486304     0.42900
O345        O  0.28841553  0.57333300  0.33650158    -0.81500
O346        O  0.39355792  0.66992229  0.51047909    -0.66200
O347        O  0.34063571  0.63534437  0.41761242    -1.12800
C348        C  0.24308068  0.67503274  0.52971266     1.05300
O349        O  0.38777737  0.71375094  0.58389272    -0.79400
O350        O  0.31477515  0.63280159  0.59445712    -0.67000
Ni351      Ni  0.33904752  0.62915660  0.33365507     1.34900
C352        C  0.29985516  0.59442793  0.56379454     0.84100
O353        O  0.42526320  0.69949438  0.40139166    -0.80000
O354        O  0.39120487  0.68128404  0.31765055    -0.90300
C355        C  0.41059863  0.70089420  0.55017294     0.83700
O356        O  0.31184873  0.67366977  0.32937187    -0.68500
O357        O  0.27112710  0.69319244  0.56902642    -0.87700
C358        C  0.33044877  0.71771042  0.34513532     0.84500
C359        C  0.42501530  0.69657475  0.34584010     1.06000
H360        H  0.32394987  0.72275702  0.47539271     0.37900
O361        O  0.33007487  0.69567020  0.48879860    -1.10400
O362        O  0.29012692  0.59431906  0.51019656    -0.67100
Ni363      Ni  0.29154981  0.64011299  0.45128426     1.26300
O364        O  0.36058331  0.73105132  0.38185560    -0.67300
O365        O  0.24646495  0.64983193  0.48624637    -0.79600
C366        C  0.25552039  0.56097586  0.36628221     0.83900
O367        O  0.25184673  0.58478496  0.41067410    -0.66800
Ni368      Ni  0.32880579  0.70010387  0.57405668     1.27400
Ni369      Ni  0.37740502  0.69809186  0.44520135     1.26100
H370        H  0.34694371  0.60970965  0.43545164     0.38400
C371        C  0.98475830  0.94903815  0.33255947     0.79600
N372        N  0.44898105  0.95427485  0.34683871    -0.78700
C373        C  0.44839676  0.99756271  0.36185508     0.80800
N374        N  0.98461316  0.54090174  0.36419706    -0.78700
C375        C  0.01972341  0.54216870  0.33851794     0.82100
N376        N  0.01998842  0.98945652  0.32860907    -0.80400
C377        C  0.27161714  0.96609943  0.10295228     0.79600
N378        N  0.27008598  0.01117157  0.10319986    -0.78700
C379        C  0.30238874  0.54922075  0.58411843     0.82000
N380        N  0.33501018  0.54232789  0.56177739    -0.78700
C381        C  0.33746904  0.99889383  0.54834887     0.82100
N382        N  0.30470628  0.96011158  0.07860153    -0.80400
C383        C  0.16654749  0.73063221  0.05857633     0.79600
N384        N  0.13679712  0.70070156  0.02192834    -0.78700
C385        C  0.14244707  0.66360405  0.99461564     0.82000
N386        N  0.17908166  0.66435545  0.48359515    -0.78700
C387        C  0.20514458  0.68531548  0.52828094     0.82100
N388        N  0.20273108  0.72387251  0.06678478    -0.80400
C389        C  0.45198774  0.73766413  0.53712387     0.79600
N390        N  0.98840385  0.74763532  0.57055677    -0.78700
C391        C  0.02673098  0.78450931  0.05482644     0.82000
N392        N  0.03003268  0.81171159  0.00552574    -0.78700
C393        C  0.99131250  0.79888872  0.46965213     0.82100
N394        N  0.45419689  0.76479944  0.48901986    -0.80400
O395        O  0.20222474  0.91428667  0.08924676    -0.81500
O396        O  0.09262434  0.81283992  0.25496303    -0.66200
O397        O  0.14847505  0.84875971  0.16502212    -1.12800
C398        C  0.24358761  0.80739279  0.27995207     1.05300
O399        O  0.09735004  0.76741492  0.32755753    -0.79400
O400        O  0.16786640  0.85175493  0.33696729    -0.67000
Ni401      Ni  0.15115963  0.85920493  0.08160220     1.34900
C402        C  0.18719552  0.88959572  0.30671720     0.84100
O403        O  0.06406047  0.78832702  0.14466931    -0.80000
O404        O  0.09857208  0.80950296  0.06153343    -0.90300
C405        C  0.07506128  0.78142461  0.29408381     0.83700
O406        O  0.17658641  0.81289940  0.07499353    -0.68500
O407        O  0.21560134  0.79385206  0.32000977    -0.87700
C408        C  0.15759816  0.76847856  0.08974728     0.84500
C409        C  0.06477697  0.79434343  0.08947795     1.06000
H410        H  0.16111167  0.75783663  0.22325153     0.37900
O411        O  0.15616023  0.78599175  0.23534080    -1.10400
O412        O  0.20133293  0.88789373  0.25605183    -0.67100
Ni413      Ni  0.19637529  0.84015893  0.19760817     1.26300
O414        O  0.12714303  0.75432244  0.12598146    -0.67300
O415        O  0.23992136  0.82699577  0.23165930    -0.79600
C416        C  0.23502357  0.92255594  0.11822349     0.83900
O417        O  0.23791034  0.89382008  0.15744116    -0.66800
Ni418      Ni  0.15690421  0.78411052  0.32098342     1.27400
Ni419      Ni  0.11003773  0.78618126  0.18978390     1.26100
H420        H  0.14277758  0.87377787  0.18505522     0.38400
C421        C  0.49841604  0.54230031  0.09272869     0.79600
N422        N  0.03498689  0.54562146  0.10069446    -0.78700
C423        C  0.04551058  0.50810303  0.11431610     0.82000
N424        N  0.51826972  0.96479381  0.11953439    -0.78700
C425        C  0.47843770  0.95801001  0.10883691     0.82100
N426        N  0.46856401  0.49709656  0.09762092    -0.80400
C427        C  0.21922507  0.52097350  0.34231196     0.79600
N428        N  0.19524527  0.53341986  0.30383838    -0.78700
C429        C  0.16710075  0.49931556  0.26986671     0.82000
N430        N  0.16001323  0.94937704  0.28906281    -0.78700
C431        C  0.18635110  0.93709063  0.32223947     0.82100
N432        N  0.21797163  0.97304853  0.35078169    -0.80400
C433        C  0.03185367  0.74759103  0.28353549     0.79600
N434        N  0.02473087  0.72251878  0.23224896    -0.78700
C435        C  0.48820301  0.69271967  0.21941458     0.82000
N436        N  0.45698854  0.68494823  0.25755471    -0.78700
C437        C  0.46272460  0.70861912  0.30965240     0.82100
N438        N  0.50142612  0.74153134  0.32445095    -0.80400
C439        C  0.32296211  0.75587200  0.31241248     0.79600
N440        N  0.28716064  0.76379292  0.31751501    -0.78700
C441        C  0.28283805  0.80033318  0.28564727     0.82000
N442        N  0.31333723  0.82660828  0.24834011    -0.78700
C443        C  0.34818366  0.81834489  0.24197920     0.82100
N444        N  0.35309053  0.78325254  0.27485915    -0.80400
C445        C  0.48740833  0.58480064  0.09911720    -0.06100
C446        C  0.45055004  0.57894115  0.12832404    -0.33600
C447        C  0.44806506  0.61636388  0.16260064     0.35700
C448        C  0.48314643  0.66006308  0.16843383    -0.06500
C449        C  0.01497801  0.66485553  0.12886573    -0.33400
C450        C  0.01577701  0.62816260  0.09199480     0.35600
H451        H  0.42531733  0.54376789  0.13054165     0.16000
O452        O  0.41274039  0.60789484  0.19438670    -0.60900
H453        H  0.04230068  0.69783418  0.13119217     0.16000
O454        O  0.05022093  0.63610229  0.05855197    -0.61000
H455        H  0.04478595  0.64927766  0.02086652     0.43000
H456        H  0.41420683  0.58782816  0.22840538     0.42900
C457        C  0.14503297  0.51221337  0.22156781    -0.06100
C458        C  0.12071817  0.03948133  0.24659070    -0.33600
C459        C  0.09333509  0.04375096  0.20426785     0.35700
C460        C  0.08536293  0.51735538  0.14282129    -0.06500
C461        C  0.10541433  0.48628982  0.13129181    -0.33400
C462        C  0.13604694  0.48489064  0.16930519     0.35600
H463        H  0.12471686  0.05878639  0.28779830     0.16000
O464        O  0.07236527  0.07300614  0.21580735    -0.60900
H465        H  0.09620941  0.46180953  0.09408875     0.16000
O466        O  0.15741235  0.45696103  0.15484428    -0.61000
H467        H  0.18413101  0.48020209  0.13930764     0.43000
H468        H  0.04394547  0.05083338  0.22655929     0.42900
C469        C  0.38016471  0.84753230  0.19940261    -0.06100
C470        C  0.42033934  0.84839037  0.20313275    -0.33600
C471        C  0.45242826  0.88084550  0.16930803     0.35700
C472        C  0.44463392  0.91354676  0.13078126    -0.06500
C473        C  0.40364113  0.90882924  0.12255117    -0.33400
C474        C  0.37164619  0.87660880  0.15645794     0.35600
H475        H  0.42754430  0.82561659  0.23460048     0.16000
O476        O  0.49166173  0.88268856  0.17819329    -0.60900
H477        H  0.39655706  0.93252372  0.09241821     0.16000
O478        O  0.33231217  0.87458574  0.14769061    -0.61000
H479        H  0.33151698  0.90358431  0.16770906     0.43000
H480        H  0.49534823  0.86075374  0.14816434     0.42900
C481        C  0.12004051  0.65080436  0.41950692    -0.06100
C482        C  0.08619597  0.66188881  0.40262735    -0.33600
C483        C  0.05514248  0.63018673  0.36588903     0.35700
C484        C  0.05749108  0.58626804  0.34784367    -0.06500
C485        C  0.09443882  0.57990885  0.35684511    -0.33400
C486        C  0.12585260  0.61198058  0.39100158     0.35600
H487        H  0.08254080  0.69346839  0.42043467     0.16000
O488        O  0.02186383  0.64087979  0.34962389    -0.60900
H489        H  0.09757491  0.54705258  0.34310872     0.16000
O490        O  0.16018066  0.60170356  0.40058687    -0.61000
H491        H  0.17992275  0.61930578  0.36922287     0.43000
H492        H  0.01263082  0.65285664  0.38526810     0.42900
C493        C  0.98731793  0.90105853  0.34026545    -0.06100
C494        C  0.95079936  0.86296786  0.35727406    -0.33600
C495        C  0.96242513  0.83506464  0.89134764     0.35700
C496        C  0.98997212  0.82961448  0.41899138    -0.06500
C497        C  0.02644005  0.86120684  0.39188430    -0.33400
C498        C  0.02541652  0.89712845  0.35288415     0.35600
H499        H  0.93411681  0.86911626  0.83345940     0.16000
O500        O  0.92480242  0.80056580  0.90551632    -0.60900
H501        H  0.05601997  0.86047735  0.40418597     0.16000
O502        O  0.06207440  0.93100000  0.33290348    -0.61000
H503        H  0.06372682  0.92263277  0.29105718     0.43000
H504        H  0.41485894  0.80915539  0.92573484     0.42900
C505        C  0.41672198  0.99845139  0.40451122    -0.06100
C506        C  0.38526407  0.95460312  0.42280861    -0.33600
C507        C  0.36056847  0.95281086  0.47195003     0.35700
C508        C  0.36700043  0.99542319  0.50382359    -0.06500
C509        C  0.39959378  0.53720072  0.49869830    -0.33400
C510        C  0.42568022  0.53949688  0.45227417     0.35600
H511        H  0.38024159  0.92115294  0.39985059     0.16000
O512        O  0.32794324  0.91128409  0.99273400    -0.60900
H513        H  0.40469325  0.57065583  0.52164782     0.16000
O514        O  0.45640143  0.58348443  0.43983210    -0.61000
H515        H  0.47949652  0.58608929  0.46663789     0.43000
H516        H  0.33722564  0.89133795  0.01947589     0.42900
O517        O  0.28860236  0.56782654  0.84826409    -0.81500
O518        O  0.39778919  0.67507071  0.00943954    -0.66200
O519        O  0.34126091  0.63582626  0.92169265    -1.12800
C520        C  0.24687408  0.67929638  0.03458400     1.05300
O521        O  0.39307703  0.72114606  0.08094783    -0.79400
O522        O  0.32212660  0.63759776  0.09409177    -0.67000
Ni523      Ni  0.33830540  0.62435129  0.83875771     1.34900
C524        C  0.30256860  0.59858782  0.06606375     0.84100
O525        O  0.42539922  0.69997090  0.89894853    -0.80000
O526        O  0.38955236  0.67601454  0.81734095    -0.90300
C527        C  0.41533031  0.70726570  0.04753605     0.83700
O528        O  0.31046890  0.66821899  0.82968540    -0.68500
O529        O  0.27530842  0.69523638  0.07375647    -0.87700
C530        C  0.32868535  0.71312081  0.84254719     0.84500
C531        C  0.42397409  0.69428588  0.84381421     1.06000
H532        H  0.32702059  0.72657607  0.97643379     0.37900
O533        O  0.33281354  0.69921855  0.98969356    -1.10400
O534        O  0.28879289  0.59797655  0.01451732    -0.67100
Ni535      Ni  0.29305137  0.64379725  0.95382195     1.26300
O536        O  0.35866018  0.72857638  0.87949853    -0.67300
O537        O  0.24978508  0.65714939  0.98790058    -0.79600
C538        C  0.25522664  0.55989312  0.87545267     0.83900
O539        O  0.25180035  0.58881658  0.91413769    -0.66800
Ni540      Ni  0.33359224  0.70461626  0.07479212     1.27400
Ni541      Ni  0.37862234  0.69976185  0.94406060     1.26100
H542        H  0.34737646  0.61111137  0.94221822     0.38400
C543        C  0.99161252  0.95877919  0.83863971     0.79600
N544        N  0.45892618  0.95744262  0.86778819    -0.78700
C545        C  0.45451383  0.99909238  0.88094016     0.80800
N546        N  0.98563297  0.53744021  0.86117679    -0.78700
C547        C  0.02088267  0.53296756  0.84455245     0.82100
N548        N  0.02374239  0.00117185  0.82765172    -0.80400
C549        C  0.27278198  0.96535027  0.59570800     0.79600
N550        N  0.27178630  0.01062824  0.59891859    -0.78700
C551        C  0.30412376  0.55252223  0.08543829     0.82000
N552        N  0.33723951  0.54587585  0.06451945    -0.78700
C553        C  0.33724237  0.99906177  0.05848958     0.82100
N554        N  0.30504414  0.95961403  0.56827979    -0.80400
C555        C  0.16566546  0.73194046  0.54799788     0.79600
N556        N  0.14016476  0.71012050  0.50212398    -0.78700
C557        C  0.14719090  0.67641973  0.46920717     0.82000
N558        N  0.17747520  0.65685576  0.00401457    -0.78700
C559        C  0.20764119  0.68586518  0.03934202     0.82100
N560        N  0.19899871  0.72032558  0.56067920    -0.80400
C561        C  0.45758148  0.74230122  0.03502320     0.79600
N562        N  0.98926713  0.74927715  0.06972615    -0.78700
C563        C  0.02500648  0.78292604  0.55231387     0.82000
N564        N  0.02607213  0.80825394  0.50195088    -0.78700
C565        C  0.99680102  0.80447833  0.97069693     0.82100
N566        N  0.46226999  0.76931487  0.98575458    -0.80400
O567        O  0.20313647  0.91391384  0.58261308    -0.81500
O568        O  0.09368858  0.81323866  0.74944637    -0.66200
O569        O  0.14935976  0.84865976  0.65912625    -1.12800
C570        C  0.24402795  0.80527513  0.77280579     1.05300
O571        O  0.09793417  0.76709802  0.82130699    -0.79400
O572        O  0.16825378  0.85174047  0.82950044    -0.67000
Ni573      Ni  0.15103208  0.86015585  0.57581730     1.34900
C574        C  0.18809344  0.88940662  0.79920367     0.84100
O575        O  0.06446486  0.78846893  0.64006823    -0.80000
O576        O  0.09748986  0.81184680  0.55609392    -0.90300
C577        C  0.07584292  0.78213189  0.78875674     0.83700
O578        O  0.17513860  0.81312412  0.56642051    -0.68500
O579        O  0.21631801  0.79331094  0.81332876    -0.87700
C580        C  0.15678686  0.76874817  0.58146301     0.84500
C581        C  0.06416187  0.79489293  0.58512483     1.06000
H582        H  0.16138669  0.75705956  0.71677882     0.37900
O583        O  0.15682613  0.78546960  0.72885299    -1.10400
O584        O  0.20318760  0.88729304  0.74934324    -0.67100
Ni585      Ni  0.19727126  0.83928101  0.69077438     1.26300
O586        O  0.12733653  0.75423967  0.61941092    -0.67300
O587        O  0.24064173  0.82494978  0.72428901    -0.79600
C588        C  0.23610110  0.92170758  0.61106804     0.83900
O589        O  0.23894436  0.89275662  0.65013060    -0.66800
Ni590      Ni  0.15759209  0.78390608  0.81446986     1.27400
Ni591      Ni  0.11070849  0.78619675  0.68396068     1.26100
H592        H  0.14401557  0.87351011  0.68006078     0.38400
C593        C  0.49471113  0.53954086  0.59049911     0.79600
N594        N  0.03629792  0.54543787  0.60950354    -0.78700
C595        C  0.04591420  0.50752549  0.62435878     0.82000
N596        N  0.51769831  0.96527867  0.61942664    -0.78700
C597        C  0.47737861  0.95670921  0.60919593     0.82100
N598        N  0.46495062  0.49416792  0.59404659    -0.80400
C599        C  0.21829800  0.51891022  0.85441313     0.79600
N600        N  0.19151449  0.53038727  0.82037249    -0.78700
C601        C  0.16222602  0.49582056  0.78840120     0.82000
N602        N  0.16377349  0.95108066  0.77623959    -0.78700
C603        C  0.18721353  0.93725890  0.81336771     0.82100
N604        N  0.21664680  0.97196311  0.84656867    -0.80400
C605        C  0.03209281  0.74952229  0.77873253     0.79600
N606        N  0.02454361  0.72416600  0.72780876    -0.78700
C607        C  0.48605532  0.69076707  0.71594197     0.82000
N608        N  0.45519754  0.68285972  0.75470811    -0.78700
C609        C  0.46124088  0.70691809  0.80649588     0.82100
N610        N  0.49994900  0.74041134  0.82038610    -0.80400
C611        C  0.32115389  0.74996855  0.80652991     0.79600
N612        N  0.28609347  0.75964247  0.81149512    -0.78700
C613        C  0.28252730  0.79610513  0.77836758     0.82000
N614        N  0.31315412  0.82075952  0.74043961    -0.78700
C615        C  0.34736496  0.81107594  0.73434386     0.82100
N616        N  0.35154145  0.77604882  0.76832301    -0.80400
C617        C  0.48367144  0.58203758  0.59603333    -0.06100
C618        C  0.44701726  0.57664987  0.62544390    -0.33600
C619        C  0.44492244  0.61456151  0.65921609     0.35700
C620        C  0.48042153  0.65792862  0.66496568    -0.06500
C621        C  0.01519990  0.66586350  0.62652147    -0.33400
C622        C  0.01734164  0.62808698  0.59313274     0.35600
H623        H  0.42168135  0.54157702  0.62809765     0.16000
O624        O  0.40948091  0.60704329  0.69031332    -0.60900
H625        H  0.04220857  0.69917441  0.62792189     0.16000
O626        O  0.05290464  0.63528895  0.56257759    -0.61000
H627        H  0.04815692  0.64565788  0.52275603     0.43000
H628        H  0.40986384  0.58614409  0.72401803     0.42900
C629        C  0.13989494  0.50852773  0.74066733    -0.06100
C630        C  0.12931686  0.04608092  0.73146477    -0.33600
C631        C  0.09946117  0.04882423  0.69220822     0.35700
C632        C  0.08405533  0.51608122  0.65710563    -0.06500
C633        C  0.10559846  0.48657990  0.64595041    -0.33400
C634        C  0.13472684  0.48442514  0.68614669     0.35600
H635        H  0.13809002  0.06970096  0.76926178     0.16000
O636        O  0.08164171  0.08136234  0.70323835    -0.60900
H637        H  0.09892830  0.46412983  0.60688488     0.16000
O638        O  0.15764739  0.45802102  0.67216539    -0.61000
H639        H  0.18465150  0.48213113  0.65867709     0.43000
H640        H  0.05525456  0.06257005  0.72345846     0.42900
C641        C  0.37979181  0.83995138  0.69191306    -0.06100
C642        C  0.42050373  0.84271123  0.69747626    -0.33600
C643        C  0.45277880  0.87715310  0.66553112     0.35700
C644        C  0.44452953  0.91010856  0.62791188    -0.06500
C645        C  0.40325590  0.90270030  0.61668516    -0.33400
C646        C  0.37110506  0.86825755  0.64811495     0.35600
H647        H  0.42783566  0.82017701  0.72915583     0.16000
O648        O  0.49238367  0.88057290  0.67530577    -0.60900
H649        H  0.39585002  0.92602263  0.58627992     0.16000
O650        O  0.33132267  0.86346807  0.63642749    -0.61000
H651        H  0.32860009  0.89222368  0.65437146     0.43000
H652        H  0.49724516  0.85960371  0.64501969     0.42900
C653        C  0.11290833  0.63146966  0.95208917    -0.06100
C654        C  0.09135436  0.64942005  0.91292201    -0.33600
C655        C  0.06439475  0.61873111  0.87111641     0.35700
C656        C  0.05914151  0.56970357  0.86818307    -0.06500
C657        C  0.08314999  0.55307269  0.90448964    -0.33400
C658        C  0.10933774  0.58313791  0.94657841     0.35600
H659        H  0.09509686  0.68698536  0.91506066     0.16000
O660        O  0.04266353  0.63642186  0.83399979    -0.60900
H661        H  0.07892624  0.51529958  0.90429283     0.16000
O662        O  0.12894785  0.56376935  0.98516790    -0.61000
H663        H  0.15210727  0.56105664  0.96259603     0.43000
H664        H  0.02239409  0.64297032  0.85917694     0.42900
C665        C  0.99852893  0.91353532  0.84691440    -0.06100
C666        C  0.96319682  0.87100792  0.85205308    -0.33600
C667        C  0.95183851  0.83043767  0.40014931     0.35700
C668        C  0.99871106  0.83790665  0.92103412    -0.06500
C669        C  0.03599589  0.87641243  0.90691911    -0.33400
C670        C  0.03610828  0.91435903  0.87057820     0.35600
H671        H  0.92098378  0.86377496  0.34638474     0.16000
O672        O  0.91570721  0.80461219  0.42893820    -0.60900
H673        H  0.06461306  0.87932966  0.92785209     0.16000
O674        O  0.07212807  0.95429555  0.86479675    -0.61000
H675        H  0.08356774  0.95026678  0.82626861     0.43000
H676        H  0.41295138  0.82974789  0.46277329     0.42900
C677        C  0.42336337  0.99842574  0.92523721    -0.06100
C678        C  0.38955183  0.95509217  0.93833534    -0.33600
C679        C  0.36211133  0.95309054  0.98415231     0.35700
C680        C  0.36860773  0.99479234  0.01806477    -0.06500
C681        C  0.40186883  0.54110262  0.00035580    -0.33400
C682        C  0.42766052  0.54358427  0.95328504     0.35600
H683        H  0.38412707  0.92275327  0.91271745     0.16000
O684        O  0.32948437  0.90968144  0.48685102    -0.60900
H685        H  0.40733436  0.57430394  0.02412375     0.16000
O686        O  0.45849768  0.58749080  0.94074865    -0.61000
H687        H  0.48118310  0.59067741  0.96862928     0.43000
H688        H  0.34338832  0.89064907  0.50674987     0.42900
O689        O  0.78808315  0.06678664  0.34498673    -0.81500
O690        O  0.89635308  0.17366887  0.50617638    -0.66200
O691        O  0.84015465  0.13494196  0.41793696    -1.12800
C692        C  0.74552672  0.17883611  0.52944518     1.05300
O693        O  0.89098069  0.21901562  0.57820762    -0.79400
O694        O  0.82039812  0.13556189  0.58902148    -0.67000
Ni695      Ni  0.83759692  0.12339311  0.33509472     1.34900
C696        C  0.80088365  0.09697289  0.56031078     0.84100
O697        O  0.92427128  0.19869801  0.39561523    -0.80000
O698        O  0.88879167  0.17522584  0.31359960    -0.90300
C699        C  0.91348404  0.20543219  0.54493648     0.83700
O700        O  0.80949751  0.16692964  0.32624979    -0.68500
O701        O  0.77339636  0.19342571  0.56954563    -0.87700
C702        C  0.82734902  0.21175410  0.33959757     0.84500
C703        C  0.92310119  0.19313136  0.34041294     1.06000
H704        H  0.82620010  0.22593686  0.47310858     0.37900
O705        O  0.83164416  0.19826549  0.48606412    -1.10400
O706        O  0.78664502  0.09692098  0.50921225    -0.67100
Ni707      Ni  0.79192768  0.14345823  0.44910528     1.26300
O708        O  0.85753709  0.22742217  0.37618738    -0.67300
O709        O  0.74873954  0.15730076  0.48240471    -0.79600
C710        C  0.75441637  0.05954205  0.37100135     0.83900
O711        O  0.75069185  0.08916549  0.40841298    -0.66800
Ni712      Ni  0.83166094  0.20267924  0.57122720     1.27400
Ni713      Ni  0.87749248  0.19864794  0.44068355     1.26100
H714        H  0.84594183  0.11011204  0.43869337     0.38400
C715        C  0.48947285  0.45448826  0.33732364     0.79600
N716        N  0.95811237  0.45673136  0.36672753    -0.78700
C717        C  0.95384834  0.49857961  0.37924760     0.80800
N718        N  0.48365685  0.03736954  0.35667259    -0.78700
C719        C  0.51933423  0.03437917  0.33930118     0.82100
N720        N  0.52214291  0.49683074  0.32825418    -0.80400
C721        C  0.77331046  0.46713232  0.09829846     0.79600
N722        N  0.77212425  0.51238204  0.10011397    -0.78700
C723        C  0.80271035  0.05085945  0.57842126     0.82000
N724        N  0.83535346  0.04382946  0.55616598    -0.78700
C725        C  0.83795230  0.49945270  0.55846060     0.82100
N726        N  0.80568998  0.46121505  0.07133388    -0.80400
C727        C  0.66628326  0.23485531  0.05257150     0.79600
N728        N  0.64055971  0.21224611  0.00724060    -0.78700
C729        C  0.64765849  0.17836055  0.97479763     0.82000
N730        N  0.67725707  0.15946783  0.49573087    -0.78700
C731        C  0.70668083  0.18639250  0.53335614     0.82100
N732        N  0.69995050  0.22377084  0.06523998    -0.80400
C733        C  0.95574996  0.24057347  0.53347864     0.79600
N734        N  0.48950558  0.24956146  0.57010885    -0.78700
C735        C  0.52547995  0.28657387  0.05577207     0.82000
N736        N  0.52754564  0.31276143  0.00601827    -0.78700
C737        C  0.49560087  0.30225011  0.46938990     0.82100
N738        N  0.96079580  0.26813019  0.48463983    -0.80400
O739        O  0.70318774  0.41675302  0.08673111    -0.81500
O740        O  0.59397695  0.31580234  0.25372328    -0.66200
O741        O  0.64949350  0.35140767  0.16301754    -1.12800
C742        C  0.74335100  0.30552911  0.27370923     1.05300
O743        O  0.59799771  0.26851572  0.32436267    -0.79400
O744        O  0.66779087  0.35277932  0.33124654    -0.67000
Ni745      Ni  0.65115604  0.36290822  0.07987341     1.34900
C746        C  0.68826028  0.39032851  0.30127123     0.84100
O747        O  0.56432745  0.29197640  0.14423260    -0.80000
O748        O  0.59772403  0.31430059  0.06041694    -0.90300
C749        C  0.57603906  0.28433905  0.29264688     0.83700
O750        O  0.67556046  0.31607050  0.07096861    -0.68500
O751        O  0.71627519  0.29467369  0.31507846    -0.87700
C752        C  0.65699795  0.27163545  0.08562338     0.84500
C753        C  0.56425752  0.29799271  0.08922130     1.06000
H754        H  0.66045567  0.25843721  0.21915585     0.37900
O755        O  0.65641580  0.28710212  0.23151508    -1.10400
O756        O  0.70455857  0.38833484  0.25238644    -0.67100
Ni757      Ni  0.69705473  0.34059709  0.19307732     1.26300
O758        O  0.62683587  0.25707075  0.12247688    -0.67300
O759        O  0.73973547  0.32478630  0.22507614    -0.79600
C760        C  0.73642421  0.42358479  0.11396853     0.83900
O761        O  0.73916574  0.39380076  0.15204392    -0.66800
Ni762      Ni  0.65753724  0.28518116  0.31696006     1.27400
Ni763      Ni  0.61048841  0.28891137  0.18752976     1.26100
H764        H  0.64480474  0.37661448  0.18420668     0.38400
C765        C  0.99884924  0.03831500  0.09014888     0.79600
N766        N  0.53940090  0.04775495  0.10252515    -0.78700
C767        C  0.54886791  0.00939684  0.11620881     0.82000
N768        N  0.01562697  0.46301768  0.11818432    -0.78700
C769        C  0.97542089  0.45514867  0.10834485     0.82100
N770        N  0.96866203  0.99322455  0.09418542    -0.80400
C771        C  0.71773403  0.01822123  0.35030290     0.79600
N772        N  0.69081549  0.02892870  0.31572326    -0.78700
C773        C  0.66215408  0.99396553  0.28340254     0.82000
N774        N  0.66402221  0.45194422  0.27721582    -0.78700
C775        C  0.68717825  0.43795305  0.31476461     0.82100
N776        N  0.71638902  0.47234538  0.34833772    -0.80400
C777        C  0.53246192  0.25175884  0.28199711     0.79600
N778        N  0.52562256  0.22613901  0.23138792    -0.78700
C779        C  0.98721588  0.18927498  0.21458182     0.82000
N780        N  0.95554391  0.18139981  0.25207681    -0.78700
C781        C  0.96070575  0.20563187  0.30375146     0.82100
N782        N  0.99915077  0.23913553  0.31866827    -0.80400
C783        C  0.81938730  0.24835854  0.30403502     0.79600
N784        N  0.78496289  0.25902274  0.31084738    -0.78700
C785        C  0.78140489  0.29562086  0.27802365     0.82000
N786        N  0.81134152  0.31947863  0.23875634    -0.78700
C787        C  0.84484172  0.30875567  0.23109948     0.82100
N788        N  0.84906416  0.27359742  0.26462100    -0.80400
C789        C  0.98808350  0.08106080  0.09574075    -0.06100
C790        C  0.95079388  0.07543601  0.12350761    -0.33600
C791        C  0.94782715  0.11298886  0.15701164     0.35700
C792        C  0.98291958  0.15653386  0.16382331    -0.06500
C793        C  0.51749030  0.16852402  0.12951399    -0.33400
C794        C  0.52003718  0.13145424  0.09495265     0.35600
H795        H  0.92542376  0.04034884  0.12520057     0.16000
O796        O  0.91182471  0.10492172  0.18689021    -0.60900
H797        H  0.54399919  0.20234560  0.13085789     0.16000
O798        O  0.55519645  0.13990017  0.06286973    -0.61000
H799        H  0.55029652  0.15293894  0.02478703     0.43000
H800        H  0.91200418  0.08422525  0.22091648     0.42900
C801        C  0.63962541  0.00652093  0.23582642    -0.06100
C802        C  0.62913829  0.54700558  0.23555213    -0.33600
C803        C  0.59997090  0.55100643  0.19608398     0.35700
C804        C  0.58636117  0.01744250  0.15018861    -0.06500
C805        C  0.60930440  0.98963690  0.13797374    -0.33400
C806        C  0.63679080  0.98535465  0.17974625     0.35600
H807        H  0.63674409  0.56881952  0.27494653     0.16000
O808        O  0.58114536  0.58225859  0.20886253    -0.60900
H809        H  0.60465147  0.96969582  0.09704766     0.16000
O810        O  0.66051746  0.95996345  0.16560348    -0.61000
H811        H  0.68746469  0.98482192  0.15315782     0.43000
H812        H  0.55420549  0.56195840  0.22666879     0.42900
C813        C  0.87722641  0.33760122  0.18902343    -0.06100
C814        C  0.91804490  0.34173725  0.19710307    -0.33600
C815        C  0.95057991  0.37703882  0.16697131     0.35700
C816        C  0.94242990  0.40889626  0.12744590    -0.06500
C817        C  0.90118637  0.40048006  0.11408106    -0.33400
C818        C  0.86872324  0.36541403  0.14448778     0.35600
H819        H  0.92523683  0.31994285  0.22994985     0.16000
O820        O  0.99021226  0.38278160  0.18107121    -0.60900
H821        H  0.89402630  0.42331211  0.08266348     0.16000
O822        O  0.82886477  0.35947423  0.13121620    -0.61000
H823        H  0.82522864  0.38795368  0.14840058     0.43000
H824        H  0.99716988  0.36168201  0.15320595     0.42900
C825        C  0.61295467  0.13496983  0.44322546    -0.06100
C826        C  0.58842806  0.15183011  0.40806952    -0.33600
C827        C  0.56063169  0.12087619  0.36710447     0.35700
C828        C  0.55743163  0.07267208  0.36126111    -0.06500
C829        C  0.58442936  0.05756908  0.39308122    -0.33400
C830        C  0.61158130  0.08777502  0.43391132     0.35600
H831        H  0.59037415  0.18858916  0.41287460     0.16000
O832        O  0.53630745  0.13746940  0.33347785    -0.60900
H833        H  0.58220253  0.02057082  0.39046306     0.16000
O834        O  0.63431351  0.06915896  0.46787449    -0.61000
H835        H  0.65722291  0.06937219  0.44223105     0.43000
H836        H  0.51819281  0.14528489  0.36148428     0.42900
C837        C  0.49559078  0.40856042  0.34352582    -0.06100
C838        C  0.45978336  0.36708690  0.35197982    -0.33600
C839        C  0.45736114  0.33450940  0.89585896     0.35700
C840        C  0.49658393  0.33426141  0.41880415    -0.06500
C841        C  0.53394556  0.37060086  0.40022051    -0.33400
C842        C  0.53368627  0.40809384  0.36333488     0.35600
H843        H  0.42847696  0.36847830  0.83908590     0.16000
O844        O  0.41977228  0.30372216  0.91638808    -0.60900
H845        H  0.56310033  0.37248623  0.41831772     0.16000
O846        O  0.57018344  0.44657716  0.35341726    -0.61000
H847        H  0.57796522  0.44227976  0.31255708     0.43000
H848        H  0.91417705  0.33246069  0.97178920     0.42900
C849        C  0.92310352  0.49840024  0.42388092    -0.06100
C850        C  0.89035238  0.45478892  0.43922345    -0.33600
C851        C  0.86347663  0.45304688  0.48565463     0.35700
C852        C  0.86922505  0.49551287  0.51756065    -0.06500
C853        C  0.90091089  0.03706976  0.49523500    -0.33400
C854        C  0.92649440  0.03928738  0.44793389     0.35600
H855        H  0.88538635  0.42187280  0.41507585     0.16000
O856        O  0.82658350  0.41277677  0.98366960    -0.60900
H857        H  0.90757964  0.06975279  0.52072700     0.16000
O858        O  0.95884020  0.08244353  0.43723265    -0.61000
H859        H  0.98089361  0.08341769  0.46519472     0.43000
H860        H  0.83822593  0.39228606  0.00545160     0.42900
O861        O  0.78773890  0.07609563  0.83957885    -0.81500
O862        O  0.89308791  0.16992713  0.01360731    -0.66200
O863        O  0.84008414  0.13703690  0.92082292    -1.12800
C864        C  0.74385164  0.17766105  0.03499263     1.05300
O865        O  0.88817904  0.21298505  0.08839517    -0.79400
O866        O  0.81414058  0.13365114  0.09891559    -0.67000
Ni867      Ni  0.83814993  0.13202141  0.83681349     1.34900
C868        C  0.80012778  0.09556090  0.06762391     0.84100
O869        O  0.92453980  0.20005031  0.90440484    -0.80000
O870        O  0.89023845  0.18434961  0.82091498    -0.90300
C871        C  0.91060054  0.20018700  0.05383000     0.83700
O872        O  0.81082312  0.17645720  0.83490481    -0.68500
O873        O  0.77229221  0.19625921  0.07368632    -0.87700
C874        C  0.82985692  0.22043819  0.85056240     0.84500
C875        C  0.92408218  0.19759612  0.84880231     1.06000
H876        H  0.82414621  0.22417501  0.98028662     0.37900
O877        O  0.83021605  0.19696160  0.99333397    -1.10400
O878        O  0.79074607  0.09570873  0.01392663    -0.67100
Ni879      Ni  0.79128534  0.14156057  0.95576586     1.26300
O880        O  0.86045207  0.23338696  0.88661479    -0.67300
O881        O  0.74652932  0.15122546  0.99230796    -0.79600
C882        C  0.75502058  0.06277425  0.86983516     0.83900
O883        O  0.75126631  0.08603090  0.91492209    -0.66800
Ni884      Ni  0.82947669  0.20125122  0.07867760     1.27400
Ni885      Ni  0.87719217  0.19928090  0.94907040     1.26100
H886        H  0.84640759  0.11111096  0.93777958     0.38400
C887        C  0.48933781  0.45646473  0.83785148     0.79600
N888        N  0.94885873  0.45490018  0.84947274    -0.78700
C889        C  0.94955250  0.49862603  0.86521706     0.80800
N890        N  0.48545919  0.04159979  0.86706979    -0.78700
C891        C  0.52098434  0.04330983  0.84233834     0.82100
N892        N  0.52273764  0.49825958  0.82911838    -0.80400
C893        C  0.77191244  0.46564471  0.60142933     0.79600
N894        N  0.77014829  0.51055090  0.60232722    -0.78700
C895        C  0.80364535  0.05071713  0.08723549     0.82000
N896        N  0.83632629  0.04464774  0.06369871    -0.78700
C897        C  0.83798710  0.50037103  0.05064569     0.82100
N898        N  0.80533458  0.46018480  0.57760526    -0.80400
C899        C  0.66560775  0.23070953  0.55480573     0.79600
N900        N  0.63635947  0.20253051  0.51610102    -0.78700
C901        C  0.64242193  0.16662740  0.48645004     0.82000
N902        N  0.67981451  0.16685039  0.98916290    -0.78700
C903        C  0.70609995  0.18845072  0.03334420     0.82100
N904        N  0.70147507  0.22323722  0.56304470    -0.80400
C905        C  0.95196649  0.23687317  0.04042517     0.79600
N906        N  0.48863209  0.25061045  0.07186149    -0.78700
C907        C  0.52673610  0.28424267  0.55331423     0.82000
N908        N  0.52939253  0.31023862  0.50317526    -0.78700
C909        C  0.49375975  0.30386149  0.97187185     0.82100
N910        N  0.95370503  0.26376164  0.99234702    -0.80400
O911        O  0.70271296  0.41399903  0.58651182    -0.81500
O912        O  0.59234660  0.31412449  0.75185437    -0.66200
O913        O  0.64872541  0.34909298  0.66231940    -1.12800
C914        C  0.74323363  0.30926508  0.78006653     1.05300
O915        O  0.59639965  0.26895719  0.82496270    -0.79400
O916        O  0.66579230  0.35463051  0.83223494    -0.67000
Ni917      Ni  0.65137393  0.35947673  0.57886410     1.34900
C918        C  0.68619658  0.39176916  0.80149641     0.84100
O919        O  0.56445099  0.28905795  0.64228068    -0.80000
O920        O  0.59862427  0.31023010  0.55888757    -0.90300
C921        C  0.57436238  0.28293458  0.79098075     0.83700
O922        O  0.67618988  0.31276429  0.57199991    -0.68500
O923        O  0.71535934  0.29786628  0.82033580    -0.87700
C924        C  0.65712839  0.26843008  0.58695052     0.84500
C925        C  0.56500242  0.29485455  0.58718658     1.06000
H926        H  0.66053640  0.25817374  0.72287005     0.37900
O927        O  0.65583062  0.28671689  0.73389509    -1.10400
O928        O  0.70196925  0.38888826  0.75249284    -0.67100
Ni929      Ni  0.69630849  0.34006754  0.69532935     1.26300
O930        O  0.62722168  0.25449516  0.62416337    -0.67300
O931        O  0.73944228  0.32666850  0.73024371    -0.79600
C932        C  0.73536862  0.42191180  0.61566691     0.83900
O933        O  0.73811006  0.39285341  0.65451200    -0.66800
Ni934      Ni  0.65622659  0.28687536  0.81963756     1.27400
Ni935      Ni  0.61005693  0.28687833  0.68755170     1.26100
H936        H  0.64326035  0.37431428  0.68226007     0.38400
C937        C  0.99684358  0.03912878  0.59112463     0.79600
N938        N  0.53607320  0.04780958  0.60194252    -0.78700
C939        C  0.54715745  0.01070954  0.61554427     0.82000
N940        N  0.01582830  0.46239227  0.62504809    -0.78700
C941        C  0.97634235  0.45484701  0.61026970     0.82100
N942        N  0.96718353  0.99364815  0.59184813    -0.80400
C943        C  0.71909227  0.02259151  0.84481116     0.79600
N944        N  0.69579577  0.03550612  0.80562596    -0.78700
C945        C  0.66919543  0.00215400  0.76916158     0.82000
N946        N  0.66253483  0.45362813  0.77649429    -0.78700
C947        C  0.68574350  0.43991588  0.81417484     0.82100
N948        N  0.71557702  0.47475045  0.84655818    -0.80400
C949        C  0.53093560  0.24955069  0.78034343     0.79600
N950        N  0.52354859  0.22441922  0.72910351    -0.78700
C951        C  0.98682438  0.18839986  0.72413805     0.82000
N952        N  0.95566324  0.18167779  0.76218539    -0.78700
C953        C  0.96152829  0.20760039  0.81268273     0.82100
N954        N  0.00012780  0.24152926  0.82587110    -0.80400
C955        C  0.82272351  0.25856259  0.81712118     0.79600
N956        N  0.78709874  0.26707547  0.82158849    -0.78700
C957        C  0.78251726  0.30220280  0.78711102     0.82000
N958        N  0.81243802  0.32612124  0.74781765    -0.78700
C959        C  0.84682596  0.31686829  0.74166114     0.82100
N960        N  0.85210621  0.28345678  0.77719101    -0.80400
C961        C  0.98547986  0.08104231  0.60101695    -0.06100
C962        C  0.94917954  0.07401836  0.63245332    -0.33600
C963        C  0.94704277  0.11060675  0.66885922     0.35700
C964        C  0.98165307  0.15493772  0.67382346    -0.06500
C965        C  0.51406226  0.16641807  0.62662912    -0.33400
C966        C  0.51568459  0.12944591  0.59112501     0.35600
H967        H  0.92432624  0.03853884  0.63453038     0.16000
O968        O  0.91251702  0.10088263  0.70291833    -0.60900
H969        H  0.54119385  0.19955925  0.62875547     0.16000
O970        O  0.55078688  0.13751008  0.55910427    -0.61000
H971        H  0.54222722  0.13714160  0.51746145     0.43000
H972        H  0.91566984  0.08127603  0.73637080     0.42900
C973        C  0.64753831  0.01568608  0.72092215    -0.06100
C974        C  0.62802399  0.54832368  0.73204932    -0.33600
C975        C  0.59780401  0.55089715  0.69341137     0.35700
C976        C  0.58743149  0.02068659  0.64306062    -0.06500
C977        C  0.60780165  0.99010466  0.63072039    -0.33400
C978        C  0.63860745  0.98868291  0.66831515     0.35600
H979        H  0.63662187  0.57156902  0.77024145     0.16000
O980        O  0.57964799  0.58300986  0.70510884    -0.60900
H981        H  0.59843163  0.96564034  0.59351035     0.16000
O982        O  0.65928805  0.95992781  0.65392132    -0.61000
H983        H  0.68694570  0.98278039  0.64096115     0.43000
H984        H  0.55339497  0.56385879  0.72543469     0.42900
C985        C  0.87787510  0.34329674  0.69643206    -0.06100
C986        C  0.91742448  0.34198841  0.69750302    -0.33600
C987        C  0.94929653  0.37375076  0.66257022     0.35700
C988        C  0.94217404  0.40893749  0.62774324    -0.06500
C989        C  0.90136146  0.40507181  0.62030019    -0.33400
C990        C  0.86930288  0.37248843  0.65371137     0.35600
H991        H  0.92441441  0.31820218  0.72771035     0.16000
O992        O  0.98784431  0.37249522  0.66670618    -0.60900
H993        H  0.89457580  0.43003852  0.59194354     0.16000
O994        O  0.82998055  0.37061385  0.64521845    -0.61000
H995        H  0.82946124  0.40000762  0.66454190     0.43000
H996        H  0.98754212  0.34717368  0.63847246     0.42900
C997        C  0.62042884  0.15209056  0.92547724    -0.06100
C998        C  0.58646927  0.16284174  0.90843803    -0.33600
C999        C  0.55560615  0.13101919  0.87159235     0.35700
C1000       C  0.55850076  0.08750760  0.85287118    -0.06500
C1001       C  0.59564613  0.08156757  0.86188588    -0.33400
C1002       C  0.62658390  0.11341796  0.89703673     0.35600
H1003       H  0.58261988  0.19435607  0.92609887     0.16000
O1004       O  0.52210044  0.14136766  0.85551593    -0.60900
H1005       H  0.59928734  0.04918579  0.84723942     0.16000
O1006       O  0.66088527  0.10323343  0.90730324    -0.61000
H1007       H  0.68051317  0.12000809  0.87544649     0.43000
H1008       H  0.51296120  0.15352977  0.89110754     0.42900
C1009       C  0.49421158  0.40977769  0.84468549    -0.06100
C1010       C  0.45790286  0.36904486  0.85461135    -0.33600
C1011       C  0.45946432  0.33246736  0.39275633     0.35700
C1012       C  0.49451299  0.33585602  0.92134931    -0.06500
C1013       C  0.53201404  0.37130333  0.90157949    -0.33400
C1014       C  0.53211041  0.40834712  0.86361348     0.35600
H1015       H  0.43024750  0.36606817  0.33631723     0.16000
O1016       O  0.42191735  0.30146151  0.41288048    -0.60900
H1017       H  0.56117433  0.37256616  0.91894101     0.16000
O1018       O  0.56898892  0.44545265  0.85106789    -0.61000
H1019       H  0.57856796  0.43564768  0.81414963     0.43000
H1020       H  0.91354349  0.30583325  0.42171079     0.42900
C1021       C  0.91801468  0.50025115  0.90770790    -0.06100
C1022       C  0.88466579  0.45706946  0.92312860    -0.33600
C1023       C  0.85966081  0.45500793  0.97196840     0.35700
C1024       C  0.86762840  0.49666010  0.00648999    -0.06500
C1025       C  0.90124909  0.04098325  0.99915805    -0.33400
C1026       C  0.92761056  0.04359406  0.95283351     0.35600
H1027       H  0.87832165  0.42426970  0.89804014     0.16000
O1028       O  0.83050088  0.41056133  0.49691032    -0.60900
H1029       H  0.90630839  0.07417346  0.02271293     0.16000
O1030       O  0.95900211  0.08736364  0.94165085    -0.61000
H1031       H  0.98208088  0.08837621  0.96757624     0.43000
H1032       H  0.84242877  0.38883767  0.51521089     0.42900
O1033       O  0.78810067  0.56950194  0.34303258    -0.81500
O1034       O  0.89487801  0.66965500  0.51159746    -0.66200
O1035       O  0.84058001  0.63376830  0.42063796    -1.12800
C1036       C  0.74529565  0.67734330  0.53331913     1.05300
O1037       O  0.89028777  0.71482864  0.58426965    -0.79400
O1038       O  0.81763766  0.63419353  0.59622832    -0.67000
Ni1039     Ni  0.83836470  0.62528267  0.33710660     1.34900
C1040       C  0.80139968  0.59549208  0.56640869     0.84100
O1041       O  0.92514574  0.69676617  0.40138075    -0.80000
O1042       O  0.89021070  0.67688068  0.31851803    -0.90300
C1043       C  0.91251126  0.70112426  0.55051107     0.83700
O1044       O  0.81114865  0.66976890  0.33118863    -0.68500
O1045       O  0.77371288  0.69496225  0.57223032    -0.87700
C1046       C  0.82985994  0.71414979  0.34567179     0.84500
C1047       C  0.92430526  0.69276826  0.34593585     1.06000
H1048       H  0.82583479  0.72322356  0.47682764     0.37900
O1049       O  0.83159297  0.69593435  0.49044255    -1.10400
O1050       O  0.78997488  0.59483365  0.51355762    -0.67100
Ni1051     Ni  0.79213680  0.64044548  0.45403229     1.26300
O1052       O  0.86035598  0.72826709  0.38184301    -0.67300
O1053       O  0.74808288  0.65221848  0.48928857    -0.79600
C1054       C  0.75499562  0.55922276  0.37173824     0.83900
O1055       O  0.75140861  0.58521068  0.41398920    -0.66800
Ni1056     Ni  0.83134554  0.70140083  0.57569951     1.27400
Ni1057     Ni  0.87805164  0.69676176  0.44592679     1.26100
H1058       H  0.84664242  0.60835684  0.43952896     0.38400
C1059       C  0.48428651  0.94969681  0.32946436     0.79600
N1060       N  0.95000200  0.95345044  0.35296264    -0.78700
C1061       C  0.94987497  0.99679403  0.36889387     0.80800
N1062       N  0.48410192  0.53965020  0.36458648    -0.78700
C1063       C  0.51958119  0.53986057  0.34141035     0.82100
N1064       N  0.51955436  0.99015529  0.32648149    -0.80400
C1065       C  0.77289236  0.96611730  0.10371948     0.79600
N1066       N  0.77059602  0.01078660  0.10508673    -0.78700
C1067       C  0.80404683  0.55028951  0.58642783     0.82000
N1068       N  0.83715162  0.54379433  0.56500370    -0.78700
C1069       C  0.83562505  0.99925183  0.54964859     0.82100
N1070       N  0.80580864  0.96106107  0.07734397    -0.80400
C1071       C  0.66696016  0.73073809  0.05744242     0.79600
N1072       N  0.63979718  0.70619410  0.01430540    -0.78700
C1073       C  0.64638103  0.67149163  0.98271338     0.82000
N1074       N  0.67953979  0.66314018  0.49178237    -0.78700
C1075       C  0.70700109  0.68699032  0.53360251     0.82100
N1076       N  0.70163743  0.72121666  0.06798186    -0.80400
C1077       C  0.95389046  0.73727789  0.53647945     0.79600
N1078       N  0.48664137  0.74679789  0.57054882    -0.78700
C1079       C  0.52836002  0.78511904  0.05594683     0.82000
N1080       N  0.53208528  0.81122428  0.00570554    -0.78700
C1081       C  0.48971735  0.80014192  0.47143053     0.82100
N1082       N  0.95601058  0.76333969  0.48744127    -0.80400
O1083       O  0.70390114  0.91368194  0.08963520    -0.81500
O1084       O  0.59460132  0.81426094  0.25593090    -0.66200
O1085       O  0.65008508  0.84884377  0.16559288    -1.12800
C1086       C  0.74399880  0.80562256  0.28079321     1.05300
O1087       O  0.59815973  0.76785196  0.32810357    -0.79400
O1088       O  0.66859495  0.85104653  0.33735116    -0.67000
Ni1089     Ni  0.65265458  0.85902755  0.08222312     1.34900
C1090       C  0.68739338  0.88880369  0.30675635     0.84100
O1091       O  0.56563472  0.78975719  0.14585406    -0.80000
O1092       O  0.60000589  0.80948439  0.06255552    -0.90300
C1093       C  0.57651080  0.78328833  0.29527869     0.83700
O1094       O  0.67765445  0.81251168  0.07587724    -0.68500
O1095       O  0.71593049  0.79213027  0.32072778    -0.87700
C1096       C  0.65833102  0.76809710  0.09021082     0.84500
C1097       C  0.56629589  0.79505697  0.09060438     1.06000
H1098       H  0.66180142  0.75737077  0.22373122     0.37900
O1099       O  0.65711033  0.78565884  0.23596513    -1.10400
O1100       O  0.70224131  0.88734497  0.25659144    -0.67100
Ni1101     Ni  0.69764759  0.83976793  0.19839082     1.26300
O1102       O  0.62793890  0.75407868  0.12668938    -0.67300
O1103       O  0.74083211  0.82615933  0.23293543    -0.79600
C1104       C  0.73662075  0.92213202  0.11887473     0.83900
O1105       O  0.73947197  0.89356912  0.15844146    -0.66800
Ni1106     Ni  0.65748713  0.78341479  0.32159944     1.27400
Ni1107     Ni  0.61130597  0.78666227  0.19067336     1.26100
H1108       H  0.64464692  0.87414228  0.18539068     0.38400
C1109       C  0.99508903  0.53889755  0.09034215     0.79600
N1110       N  0.53825462  0.54886947  0.10330347    -0.78700
C1111       C  0.54849197  0.51116428  0.11724941     0.82000
N1112       N  0.01745853  0.96197479  0.12219445    -0.78700
C1113       C  0.97770233  0.95461482  0.10981000     0.82100
N1114       N  0.96533622  0.49353202  0.09511607    -0.80400
C1115       C  0.71865139  0.51917092  0.34802460     0.79600
N1116       N  0.69465014  0.53184997  0.30990724    -0.78700
C1117       C  0.66781800  0.49845275  0.27375135     0.82000
N1118       N  0.65948668  0.94789519  0.28728620    -0.78700
C1119       C  0.68554859  0.93583762  0.32150687     0.82100
N1120       N  0.71648715  0.97181046  0.35082022    -0.80400
C1121       C  0.53306600  0.75069675  0.28469220     0.79600
N1122       N  0.52599181  0.72564112  0.23354755    -0.78700
C1123       C  0.98691153  0.68918456  0.21845237     0.82000
N1124       N  0.95588249  0.68094944  0.25712015    -0.78700
C1125       C  0.96174010  0.70469179  0.30920122     0.82100
N1126       N  0.00032065  0.73806679  0.32348279    -0.80400
C1127       C  0.82214023  0.75177993  0.31200757     0.79600
N1128       N  0.78677639  0.76061793  0.31786042    -0.78700
C1129       C  0.78274805  0.79732105  0.28588570     0.82000
N1130       N  0.81304817  0.82282454  0.24793882    -0.78700
C1131       C  0.84737264  0.81366312  0.24083546     0.82100
N1132       N  0.85207747  0.77847457  0.27375711    -0.80400
C1133       C  0.98426055  0.58166157  0.09612323    -0.06100
C1134       C  0.94741957  0.57651480  0.12482616    -0.33600
C1135       C  0.94555235  0.61421972  0.15940301     0.35700
C1136       C  0.98138261  0.65704470  0.16662448    -0.06500
C1137       C  0.51688431  0.66819610  0.13080087    -0.33400
C1138       C  0.51852357  0.63150167  0.09478082     0.35600
H1139       H  0.92169320  0.54170740  0.12626998     0.16000
O1140       O  0.90980747  0.60709975  0.18947959    -0.60900
H1141       H  0.54391384  0.70138221  0.13293711     0.16000
O1142       O  0.55338377  0.63981022  0.06207882    -0.61000
H1143       H  0.54839368  0.65338222  0.02442778     0.43000
H1144       H  0.90922400  0.58542911  0.22280153     0.42900
C1145       C  0.64602842  0.51241162  0.22613002    -0.06100
C1146       C  0.61981851  0.03817913  0.24590618    -0.33600
C1147       C  0.59325738  0.04390033  0.20333308     0.35700
C1148       C  0.58803015  0.52028500  0.14643092    -0.06500
C1149       C  0.60929779  0.49083635  0.13304453    -0.33400
C1150       C  0.63916145  0.48812121  0.17165894     0.35600
H1151       H  0.62338284  0.05654303  0.28770319     0.16000
O1152       O  0.57218591  0.07289420  0.21574939    -0.60900
H1153       H  0.60144827  0.46835029  0.09399596     0.16000
O1154       O  0.66127940  0.46124650  0.15607366    -0.61000
H1155       H  0.68829907  0.48531737  0.14258522     0.43000
H1156       H  0.54341277  0.05049321  0.22428742     0.42900
C1157       C  0.87927399  0.84263314  0.19810857    -0.06100
C1158       C  0.91950622  0.84379397  0.20215565    -0.33600
C1159       C  0.95164106  0.87670967  0.16887336     0.35700
C1160       C  0.94387413  0.90978672  0.13090380    -0.06500
C1161       C  0.90282353  0.90467493  0.12210332    -0.33400
C1162       C  0.87071626  0.87171055  0.15518838     0.35600
H1163       H  0.92670592  0.82094830  0.23353228     0.16000
O1164       O  0.99086992  0.87853041  0.17771023    -0.60900
H1165       H  0.89572520  0.92851669  0.09216096     0.16000
O1166       O  0.83122151  0.86892708  0.14569712    -0.61000
H1167       H  0.82989386  0.89785328  0.16521694     0.43000
H1168       H  0.99506031  0.85794133  0.14635092     0.42900
C1169       C  0.61852259  0.64482614  0.43106368    -0.06100
C1170       C  0.58698910  0.65812527  0.40919845    -0.33600
C1171       C  0.55660866  0.62701626  0.37122292     0.35700
C1172       C  0.55777577  0.58200800  0.35545996    -0.06500
C1173       C  0.59249924  0.57256768  0.37066133    -0.33400
C1174       C  0.62257607  0.60311470  0.40782283     0.35600
H1175       H  0.58474748  0.69145796  0.42350971     0.16000
O1176       O  0.52532784  0.63980082  0.35078428    -0.60900
H1177       H  0.59469366  0.53876736  0.35886365     0.16000
O1178       O  0.65366565  0.58893705  0.42501558    -0.61000
H1179       H  0.67501614  0.60118839  0.39391969     0.43000
H1180       H  0.51475198  0.65188342  0.38507631     0.42900
C1181       C  0.48664511  0.90189244  0.34022941    -0.06100
C1182       C  0.44997750  0.86450713  0.35843669    -0.33600
C1183       C  0.46647848  0.83294530  0.88735533     0.35700
C1184       C  0.48875801  0.83138198  0.42112529    -0.06500
C1185       C  0.52534761  0.86245248  0.39374847    -0.33400
C1186       C  0.52458344  0.89792461  0.35374330     0.35600
H1187       H  0.43849463  0.86750967  0.82961369     0.16000
O1188       O  0.42926641  0.79611880  0.89718573    -0.60900
H1189       H  0.55481090  0.86146092  0.40618989     0.16000
O1190       O  0.56128238  0.93107373  0.33288241    -0.61000
H1191       H  0.56661571  0.91666311  0.29616510     0.43000
H1192       H  0.91296211  0.81586307  0.93508500     0.42900
C1193       C  0.91877272  0.99804762  0.41232157    -0.06100
C1194       C  0.88461861  0.95521319  0.42596335    -0.33600
C1195       C  0.85858646  0.95332249  0.47344590     0.35700
C1196       C  0.86642389  0.99480973  0.50831494    -0.06500
C1197       C  0.90229914  0.53853998  0.50240525    -0.33400
C1198       C  0.92898441  0.54033224  0.45695901     0.35600
H1199       H  0.87815734  0.92275985  0.40011035     0.16000
O1200       O  0.82980958  0.91295323  0.99198578    -0.60900
H1201       H  0.90718326  0.57214578  0.52484052     0.16000
O1202       O  0.96069965  0.58381426  0.44574490    -0.61000
H1203       H  0.98404725  0.58390918  0.47044864     0.43000
H1204       H  0.84154707  0.89306984  0.01478874     0.42900
O1205       O  0.78781313  0.57307313  0.83855685    -0.81500
O1206       O  0.89657239  0.67452062  0.00529358    -0.66200
O1207       O  0.84090372  0.63767953  0.91605555    -1.12800
C1208       C  0.74580421  0.67691816  0.03418984     1.05300
O1209       O  0.89174015  0.71812222  0.07960441    -0.79400
O1210       O  0.81984861  0.63591698  0.09289547    -0.67000
Ni1211     Ni  0.83802640  0.62909572  0.83237767     1.34900
C1212       C  0.80321610  0.59730438  0.06298962     0.84100
O1213       O  0.92492241  0.70296720  0.89553642    -0.80000
O1214       O  0.88964100  0.68108293  0.81319602    -0.90300
C1215       C  0.91401393  0.70530285  0.04497254     0.83700
O1216       O  0.81032858  0.67297907  0.82587274    -0.68500
O1217       O  0.77468061  0.69498575  0.07222035    -0.87700
C1218       C  0.82838415  0.71739682  0.84042537     0.84500
C1219       C  0.92387847  0.69786624  0.84027162     1.06000
H1220       H  0.82494491  0.72542282  0.97503835     0.37900
O1221       O  0.83153747  0.69847036  0.98769463    -1.10400
O1222       O  0.79159538  0.59697392  0.01023346    -0.67100
Ni1223     Ni  0.79238646  0.64270362  0.95149494     1.26300
O1224       O  0.85797624  0.73184947  0.87808002    -0.67300
O1225       O  0.74844247  0.65287021  0.98900535    -0.79600
C1226       C  0.75499389  0.56204812  0.86822536     0.83900
O1227       O  0.75173039  0.58730305  0.91152554    -0.66800
Ni1228     Ni  0.83253083  0.70312109  0.07318755     1.27400
Ni1229     Ni  0.87772056  0.70112597  0.94120431     1.26100
H1230       H  0.84782340  0.61271126  0.93448041     0.38400
C1231       C  0.49387538  0.95782660  0.84182186     0.79600
N1232       N  0.95665051  0.95992946  0.86264286    -0.78700
C1233       C  0.95328436  0.00222509  0.87542905     0.80800
N1234       N  0.48592321  0.54269666  0.86519617    -0.78700
C1235       C  0.52106498  0.54182554  0.84201443     0.82100
N1236       N  0.52508707  0.00094096  0.83020117    -0.80400
C1237       C  0.76982550  0.96622875  0.59371340     0.79600
N1238       N  0.76863000  0.01144169  0.59485322    -0.78700
C1239       C  0.80575671  0.55184858  0.08244585     0.82000
N1240       N  0.83788630  0.54483320  0.05857582    -0.78700
C1241       C  0.83758297  0.00063715  0.05661379     0.82100
N1242       N  0.80289098  0.96027703  0.56931087    -0.80400
C1243       C  0.66651234  0.73269905  0.55246007     0.79600
N1244       N  0.63961078  0.70771373  0.50946069    -0.78700
C1245       C  0.64639261  0.67293417  0.47855592     0.82000
N1246       N  0.67938325  0.66142165  0.99548482    -0.78700
C1247       C  0.70716449  0.68520742  0.03684602     0.82100
N1248       N  0.70110595  0.72312250  0.56421679    -0.80400
C1249       C  0.95611881  0.74091776  0.03336143     0.79600
N1250       N  0.49065836  0.75079769  0.07155025    -0.78700
C1251       C  0.52337883  0.78207465  0.55262027     0.82000
N1252       N  0.52454647  0.80832153  0.50306178    -0.78700
C1253       C  0.49909764  0.80389985  0.97046630     0.82100
N1254       N  0.96040943  0.76891051  0.98521564    -0.80400
O1255       O  0.69994378  0.91481626  0.58177938    -0.81500
O1256       O  0.59188310  0.81446942  0.74953920    -0.66200
O1257       O  0.64718451  0.84964504  0.65883400    -1.12800
C1258       C  0.74330823  0.80888624  0.77194968     1.05300
O1259       O  0.59759150  0.77076560  0.82328833    -0.79400
O1260       O  0.66820045  0.85586085  0.82925058    -0.67000
Ni1261     Ni  0.64873670  0.85964433  0.57532603     1.34900
C1262       C  0.68771068  0.89297821  0.79789926     0.84100
O1263       O  0.56278891  0.78814619  0.64044748    -0.80000
O1264       O  0.59586339  0.80953457  0.55626907    -0.90300
C1265       C  0.57475911  0.78382095  0.78961823     0.83700
O1266       O  0.67458690  0.81394022  0.56843858    -0.68500
O1267       O  0.71612204  0.79742633  0.81323677    -0.87700
C1268       C  0.65685237  0.76969479  0.58441603     0.84500
C1269       C  0.56249271  0.79356443  0.58532461     1.06000
H1270       H  0.66039856  0.75938013  0.71866352     0.37900
O1271       O  0.65567052  0.78785606  0.72993516    -1.10400
O1272       O  0.70187358  0.88995036  0.74763253    -0.67100
Ni1273     Ni  0.69544252  0.84103084  0.69016085     1.26300
O1274       O  0.62668526  0.75509013  0.62124458    -0.67300
O1275       O  0.73918781  0.82759292  0.72317755    -0.79600
C1276       C  0.73324519  0.92268252  0.60936891     0.83900
O1277       O  0.73658241  0.89365594  0.64786482    -0.66800
Ni1278     Ni  0.65730362  0.78780297  0.81549171     1.27400
Ni1279     Ni  0.60927917  0.78717875  0.68480338     1.26100
H1280       H  0.64180118  0.87479363  0.67911201     0.38400
C1281       C  0.99718359  0.53901276  0.59440706     0.79600
N1282       N  0.53434750  0.54630725  0.60269526    -0.78700
C1283       C  0.54459813  0.50874557  0.61697221     0.82000
N1284       N  0.01670628  0.96203347  0.61519278    -0.78700
C1285       C  0.97676195  0.95462722  0.60314708     0.82100
N1286       N  0.96724390  0.49366569  0.59566811    -0.80400
C1287       C  0.71846096  0.52184175  0.84479061     0.79600
N1288       N  0.69442265  0.53421361  0.80631096    -0.78700
C1289       C  0.66688720  0.50023141  0.77144815     0.82000
N1290       N  0.66492743  0.95556280  0.77335238    -0.78700
C1291       C  0.68748334  0.94122377  0.81140085     0.82100
N1292       N  0.71649681  0.97551185  0.84559327    -0.80400
C1293       C  0.53135614  0.74966168  0.78016445     0.79600
N1294       N  0.52392580  0.72417782  0.72921575    -0.78700
C1295       C  0.98642951  0.69193789  0.71365283     0.82000
N1296       N  0.95524548  0.68508196  0.75164464    -0.78700
C1297       C  0.96136261  0.70923244  0.80350303     0.82100
N1298       N  0.00043082  0.74143398  0.81823309    -0.80400
C1299       C  0.82102051  0.75459852  0.80506358     0.79600
N1300       N  0.78617849  0.76453851  0.81076051    -0.78700
C1301       C  0.78193085  0.79998694  0.77653249     0.82000
N1302       N  0.81159864  0.82325330  0.73652645    -0.78700
C1303       C  0.84554801  0.81312141  0.72962368     0.82100
N1304       N  0.85035693  0.77908396  0.76473201    -0.80400
C1305       C  0.98613589  0.58154186  0.59874961    -0.06100
C1306       C  0.94901788  0.57641011  0.62670531    -0.33600
C1307       C  0.94597960  0.61506590  0.65788414     0.35700
C1308       C  0.98114438  0.65872298  0.66317420    -0.06500
C1309       C  0.51390004  0.66558311  0.62704059    -0.33400
C1310       C  0.51496884  0.62859981  0.59106907     0.35600
H1311       H  0.92387574  0.54123440  0.62998908     0.16000
O1312       O  0.90995737  0.60815641  0.68713326    -0.60900
H1313       H  0.54111558  0.69866445  0.62881974     0.16000
O1314       O  0.54969689  0.63634887  0.55826774    -0.61000
H1315       H  0.54346551  0.64624646  0.51898647     0.43000
H1316       H  0.90965203  0.58790926  0.72184210     0.42900
C1317       C  0.64445832  0.51314017  0.72373820    -0.06100
C1318       C  0.63192245  0.05165949  0.72841332    -0.33600
C1319       C  0.60156596  0.05413417  0.68994291     0.35700
C1320       C  0.58426822  0.51801761  0.64587703    -0.06500
C1321       C  0.60485496  0.48771449  0.63338880    -0.33400
C1322       C  0.63574059  0.48640807  0.67091575     0.35600
H1323       H  0.64120962  0.07558282  0.76591888     0.16000
O1324       O  0.58363922  0.08648461  0.70148399    -0.60900
H1325       H  0.59581719  0.46362001  0.59580799     0.16000
O1326       O  0.65682054  0.45816609  0.65610500    -0.61000
H1327       H  0.68288149  0.48087210  0.63820198     0.43000
H1328       H  0.55839923  0.06807916  0.72443169     0.42900
C1329       C  0.87734224  0.84054483  0.68548898    -0.06100
C1330       C  0.91720590  0.84013843  0.68809535    -0.33600
C1331       C  0.94969900  0.87315367  0.65506331     0.35700
C1332       C  0.94272320  0.90818100  0.61975772    -0.06500
C1333       C  0.90180136  0.90354390  0.61066366    -0.33400
C1334       C  0.86933249  0.87040922  0.64306626     0.35600
H1335       H  0.92395178  0.81626616  0.71844997     0.16000
O1336       O  0.98857300  0.87329403  0.66174158    -0.60900
H1337       H  0.89514210  0.92831825  0.58169713     0.16000
O1338       O  0.83012154  0.86872328  0.63398811    -0.61000
H1339       H  0.82949164  0.89798915  0.65352760     0.43000
H1340       H  0.98982979  0.84859482  0.63370431     0.42900
C1341       C  0.61926681  0.64455408  0.93379742    -0.06100
C1342       C  0.58834287  0.65862648  0.91146279    -0.33600
C1343       C  0.55875909  0.62864803  0.87170749     0.35700
C1344       C  0.55966552  0.58361875  0.85545786    -0.06500
C1345       C  0.59424298  0.57381533  0.87042081    -0.33400
C1346       C  0.62394540  0.60367238  0.90872987     0.35600
H1347       H  0.58604489  0.69175434  0.92646894     0.16000
O1348       O  0.52833583  0.64241776  0.85008469    -0.60900
H1349       H  0.59647873  0.54021635  0.85753402     0.16000
O1350       O  0.65538141  0.58972655  0.92483436    -0.61000
H1351       H  0.67660421  0.60276703  0.89369339     0.43000
H1352       H  0.51705488  0.65400757  0.88405539     0.42900
C1353       C  0.50196161  0.91322458  0.84739707    -0.06100
C1354       C  0.46731932  0.86978015  0.84945284    -0.33600
C1355       C  0.45080805  0.83261356  0.40224128     0.35700
C1356       C  0.50194724  0.83688308  0.91992822    -0.06500
C1357       C  0.53911373  0.87653270  0.90830799    -0.33400
C1358       C  0.53934436  0.91470689  0.87230257     0.35600
H1359       H  0.42020753  0.86524874  0.34714705     0.16000
O1360       O  0.41465402  0.80759121  0.43144660    -0.60900
H1361       H  0.56730391  0.88016215  0.93106617     0.16000
O1362       O  0.57488293  0.95555967  0.86854753    -0.61000
H1363       H  0.58770719  0.95240832  0.83080344     0.43000
H1364       H  0.91336749  0.82643112  0.46024328     0.42900
C1365       C  0.92186627  0.00204334  0.91907204    -0.06100
C1366       C  0.88906561  0.95822776  0.93387865    -0.33600
C1367       C  0.86251504  0.95570930  0.98101562     0.35700
C1368       C  0.86844867  0.99756142  0.01419987    -0.06500
C1369       C  0.90071918  0.53965676  0.99061565    -0.33400
C1370       C  0.92523674  0.54203123  0.94191160     0.35600
H1371       H  0.88406242  0.92557391  0.90914043     0.16000
O1372       O  0.82462582  0.91155188  0.48330819    -0.60900
H1373       H  0.90721646  0.57276620  0.01511569     0.16000
O1374       O  0.95608345  0.58579369  0.92840991    -0.61000
H1375       H  0.97853689  0.58997267  0.95714918     0.43000
H1376       H  0.83505973  0.89044433  0.50617981     0.42900
loop_ 
_geom_bond_atom_site_label_1 
_geom_bond_atom_site_label_2 
_geom_bond_distance 
_geom_bond_site_symmetry_2 
_ccdc_geom_bond_type 
O1           Ni7   1.916       .  S
O1           C22   1.265       .  A
O2          Ni25   1.897       .  S
O2           C11   1.265       .  A
O3           Ni7   1.915       .  S
O3          Ni25   1.920       .  S
O3          Ni19   1.944       .  S
O3           H26   0.967       .  S
C4           O21   1.280       .  A
C4           O13   1.282       .  A
C4           C43   1.472       .  S
O5          Ni24   1.954       .  S
O5           C11   1.272       .  A
O6          Ni24   1.939       .  S
O6            C8   1.272       .  A
Ni7          O10   1.933       .  S
Ni7          O12   1.926       .  S
C8           O18   1.264       .  A
C8           C35   1.468       .  S
O9          Ni25   1.941       .  S
O9           C15   1.265       .  A
O10          C15   1.268       .  A
C11          C45   1.470       .  S
O12          C14   1.278       .  A
O13         Ni24   1.952       .  S
C14          O20   1.282       .  A
C14          C95   1.473       .  S
C15          C93   1.486       .  S
H16          O17   0.966       .  S
O17         Ni25   1.912       .  S
O17         Ni19   1.890       .  S
O17         Ni24   1.946       .  S
O18         Ni19   1.905       .  S
Ni19         O23   1.940       .  S
Ni19         O21   1.891       .  S
O20         Ni25   1.962       .  S
C22          O23   1.275       .  A
C22          C83   1.477       .  S
C27         C149   1.475   1_655  S
C27          N32   1.356   1_655  A
C27         N716   1.357       .  A
N28          C29   1.350       .  A
N28         C715   1.359       .  A
C29         C161   1.483       .  S
C29        N1062   1.351       .  A
N30          C31   1.350   1_655  A
N30        C1061   1.349   1_545  A
C31         C140   1.470       .  S
C31         N376   1.360   1_545  A
N32         C375   1.362       .  A
C33          C72   1.483       .  S
C33          N34   1.375       .  A
C33          N38   1.361       .  A
N34         C551   1.370       .  A
C35          N36   1.342       .  A
C35         N550   1.367       .  A
N36         C381   1.348   1_545  A
C37         C164   1.480       .  S
C37         N380   1.348       .  A
C37         N210   1.357       .  A
N38         C209   1.358       .  A
C39          C64   1.473       .  S
C39          N40   1.362       .  A
C39          N44   1.378       .  A
N40          C41   1.354   1_554  A
C41         C309   1.480       .  S
C41         N214   1.340       .  A
N42          C43   1.344       .  A
N42         C213   1.339       .  A
C43         N216   1.370       .  A
N44         C215   1.371       .  A
C45          N50   1.348       .  A
C45         N734   1.365       .  A
N46         C733   1.367       .  A
N46         C219   1.370   1_655  A
C47          C65   1.481       .  S
C47          N48   1.365       .  A
C47         N218   1.376   1_455  A
N48         C221   1.355   1_454  A
C49         C152   1.493   1_655  S
C49         N220   1.354   1_655  A
C49         N738   1.351       .  A
N50         C737   1.348       .  A
O51         Ni57   1.924       .  S
O51          C72   1.266       .  A
O52         Ni75   1.899       .  S
O52          C61   1.267       .  A
O53         Ni57   1.920       .  S
O53         Ni75   1.922       .  S
O53         Ni69   1.944       .  S
O53          H76   0.963       .  S
C54          O71   1.275       .  A
C54          O63   1.286       .  A
C54          C97   1.479       .  S
O55         Ni74   1.958       .  S
O55          C61   1.272       .  A
O56         Ni74   1.947       .  S
O56          C58   1.273       .  A
Ni57         O60   1.935       .  S
Ni57         O62   1.922       .  S
C58          O68   1.262       .  A
C58          C87   1.476       .  S
O59         Ni75   1.923       .  S
O59          C65   1.263       .  A
O60          C65   1.268       .  A
C61          C89   1.481       .  S
O62          C64   1.279       .  A
O63         Ni74   1.966       .  S
C64          O70   1.286       .  A
H66          O67   0.966       .  S
O67         Ni75   1.915       .  S
O67         Ni69   1.894       .  S
O67         Ni74   1.946       .  S
O68         Ni69   1.906       .  S
Ni69         O73   1.936       .  S
Ni69         O71   1.886       .  S
O70         Ni75   1.961       .  S
C72          O73   1.271       .  A
C77         C101   1.477       .  S
C77          N82   1.358   1_545  A
C77         N766   1.355       .  A
N78          C79   1.349       .  A
N78         C765   1.355   1_455  A
C79         C116   1.461       .  S
C79        N1112   1.353   1_545  A
N80          C81   1.356       .  A
N80        C1111   1.355       .  A
C81         C128   1.485       .  S
C81         N426   1.360       .  A
N82         C425   1.359       .  A
C83          N84   1.358       .  A
C83         N432   1.378   1_545  A
N84          C85   1.352   1_545  A
C85         C113   1.469   1_565  S
C85         N430   1.349       .  A
N86          C87   1.351       .  A
N86         C429   1.351       .  A
C87          N88   1.370       .  A
N88         C427   1.375       .  A
C89          N90   1.355       .  A
C89         N782   1.375   1_455  A
N90         C779   1.350   1_455  A
C91         C104   1.484       .  S
C91          N92   1.349       .  A
C91         N778   1.348       .  A
N92          C93   1.357       .  A
C93          N94   1.377       .  A
N94         C777   1.376       .  A
C95          N96   1.373       .  A
C95         N100   1.360       .  A
N96          C97   1.371       .  A
C97          N98   1.354       .  A
N98          C99   1.348       .  A
C99         C125   1.483       .  S
C99         N100   1.354       .  A
C101        C102   1.405       .  A
C101        C794   1.406       .  A
C102        C103   1.397       .  A
C102        H107   1.083       .  S
C103        C104   1.411       .  A
C103        O108   1.372       .  S
C104        C793   1.406       .  A
C105        C106   1.393       .  A
C105        C792   1.406   1_455  A
C105        H109   1.079       .  S
C106        C789   1.407   1_455  A
C106        O110   1.371       .  S
O108        H112   0.992       .  S
O110        H111   0.991       .  S
C113        C118   1.411   1_545  A
C113        C458   1.397       .  A
C114        C115   1.401       .  A
C114        C457   1.397       .  A
C114        H119   1.079       .  S
C115        C460   1.415       .  A
C115        O120   1.372       .  S
C116        C117   1.394   1_545  A
C116        C459   1.415       .  A
C117        C118   1.391       .  A
C117        H121   1.084       .  S
C118        O122   1.369       .  S
O120        H124   0.991       .  S
O122        H123   0.992       .  S
C125        C126   1.403       .  A
C125        C130   1.414       .  A
C126        C127   1.400       .  A
C126        H131   1.083       .  S
C127        C128   1.416       .  A
C127        O132   1.371       .  S
C128        C129   1.403       .  A
C129        C130   1.396       .  A
C129        H133   1.083       .  S
C130        O134   1.373       .  S
O132        H136   0.992       .  S
O134        H135   0.992       .  S
C137        C213   1.473       .  S
C137        C138   1.403       .  A
C137        C142   1.413       .  A
C138        C139   1.403       .  A
C138        H143   1.083       .  S
C139        C140   1.411       .  A
C139        O144   1.374       .  S
C140        C141   1.400       .  A
C141        C142   1.387       .  A
C141        H145   1.083       .  S
C142        O146   1.373       .  S
O144        H148   0.992       .  S
O146        H147   0.992       .  S
C149        C150   1.395   1_455  A
C149        C154   1.413       .  A
C150        C323   1.391       .  A
C150        H327   1.085       .  S
C151        C322   1.387       .  A
C151        C324   1.413       .  A
C151        O156   1.371       .  S
C152        C153   1.406       .  A
C152        C323   1.413   1_455  A
C153        C154   1.403       .  A
C153        H157   1.083       .  S
C154        O158   1.370       .  S
H155        C322   1.084       .  S
O156        H848   0.992       .  S
O158        H159   0.991       .  S
H160        O844   0.992       .  S
C161        C162   1.411       .  A
C161        C510   1.411       .  A
C162        C163   1.405       .  A
C162        H167   1.083       .  S
C163        C164   1.410       .  A
C163        O340   1.372       .  S
C164        C509   1.403       .  A
C165        C166   1.387       .  A
C165        C508   1.406   1_545  A
C165        H169   1.083       .  S
C166        C505   1.411   1_545  A
C166        O170   1.372       .  S
O168        C335   1.371       .  S
O168        H172   0.991   1_556  S
O170        H171   0.993       .  S
O173       Ni179   1.910       .  S
O173        C194   1.264       .  A
O174       Ni197   1.897   1_554  S
O174        C183   1.267       .  A
O175       Ni179   1.915       .  S
O175       Ni197   1.927       .  S
O175       Ni191   1.945       .  S
O175        H198   0.967       .  S
C176        O193   1.281   1_554  A
C176        O185   1.283       .  A
C176        C215   1.481       .  S
O177       Ni196   1.960       .  S
O177        C183   1.273       .  A
O178       Ni196   1.940       .  S
O178        C180   1.273       .  A
Ni179       O182   1.923       .  S
Ni179       O184   1.925       .  S
C180        O190   1.264       .  A
C180        C207   1.467       .  S
O181       Ni197   1.941       .  S
O181        C187   1.266       .  A
O182        C187   1.266       .  A
C183        C217   1.477       .  S
O184        C186   1.278       .  A
O185       Ni196   1.957       .  S
C186        O192   1.282       .  A
C186        C267   1.471       .  S
C187        C265   1.481       .  S
H188        O189   0.966       .  S
O189       Ni197   1.913       .  S
O189       Ni191   1.894       .  S
O189       Ni196   1.944   1_556  S
O190       Ni191   1.904   1_554  S
Ni191       O195   1.952       .  S
Ni191       O193   1.897       .  S
O192       Ni197   1.959       .  S
C194        O195   1.278       .  A
C194        C255   1.482       .  S
C199        C321   1.487       .  S
C199        N888   1.359       .  A
C199        N204   1.358   1_655  A
N200        C887   1.358       .  A
N200        C201   1.350       .  A
C201        C333   1.483       .  S
C201       N1234   1.351       .  A
N202       C1233   1.353       .  A
N202        C203   1.354   1_655  A
C203        C312   1.479       .  S
C203        N548   1.362       .  A
N204        C547   1.360       .  A
C205        C244   1.474       .  S
C205        N206   1.374       .  A
C205        N210   1.362       .  A
N206        C379   1.367       .  A
C207        N378   1.367       .  A
C207        N208   1.342       .  A
N208        C553   1.349   1_545  A
C209        C336   1.481       .  S
C209        N552   1.348       .  A
C211        C236   1.475       .  S
C211        N212   1.364       .  A
C211        N216   1.375       .  A
N212        C213   1.356       .  A
N214        C215   1.344   1_556  A
C217        N906   1.369       .  A
C217        N222   1.351   1_554  A
N218        C905   1.369       .  A
C219        C237   1.474       .  S
C219        N220   1.362       .  A
C221        C324   1.482       .  S
C221        N910   1.344       .  A
N222        C909   1.349       .  A
O223       Ni229   1.917       .  S
O223        C244   1.264       .  A
O224       Ni247   1.899       .  S
O224        C233   1.268       .  A
O225       Ni229   1.919       .  S
O225       Ni247   1.922       .  S
O225       Ni241   1.940       .  S
O225        H248   0.963       .  S
C226        O243   1.275       .  A
C226        O235   1.284       .  A
C226        C269   1.481       .  S
O227       Ni246   1.957       .  S
O227        C233   1.273       .  A
O228       Ni246   1.947       .  S
O228        C230   1.273       .  A
Ni229       O232   1.921       .  S
Ni229       O234   1.926       .  S
C230        O240   1.264       .  A
C230        C259   1.479       .  S
O231       Ni247   1.933       .  S
O231        C237   1.266       .  A
O232        C237   1.265       .  A
C233        C261   1.479       .  S
O234        C236   1.280       .  A
O235       Ni246   1.963       .  S
C236        O242   1.286       .  A
H238        O239   0.966       .  S
O239       Ni247   1.920       .  S
O239       Ni241   1.895       .  S
O239       Ni246   1.948       .  S
O240       Ni241   1.908       .  S
Ni241       O245   1.929       .  S
Ni241       O243   1.890       .  S
O242       Ni247   1.961       .  S
C244        O245   1.269       .  A
C249        C273   1.480       .  S
C249        N938   1.355       .  A
C249        N254   1.359   1_545  A
N250        C937   1.354   1_455  A
N250        C251   1.350       .  A
C251        C288   1.470       .  S
C251       N1284   1.358   1_545  A
N252       C1283   1.356       .  A
N252        C253   1.357       .  A
C253        C300   1.487       .  S
C253        N598   1.362       .  A
N254        C597   1.363       .  A
C255        N256   1.363       .  A
C255        N604   1.379   1_545  A
N256        C257   1.356   1_545  A
C257        C285   1.479   1_565  S
C257        N602   1.350       .  A
N258        C601   1.350       .  A
N258        C259   1.349       .  A
C259        N260   1.371       .  A
N260        C599   1.378       .  A
C261        N262   1.355       .  A
C261        N954   1.375       .  A
N262        C951   1.351   1_455  A
C263        C276   1.489       .  S
C263        N950   1.353       .  A
C263        N264   1.348       .  A
N264        C265   1.358       .  A
C265        N266   1.374       .  A
N266        C949   1.374       .  A
C267        N268   1.372       .  A
C267        N272   1.361       .  A
N268        C269   1.369       .  A
C269        N270   1.353       .  A
N270        C271   1.348       .  A
C271        C297   1.486       .  S
C271        N272   1.354       .  A
C273        C274   1.405       .  A
C273        C966   1.407       .  A
C274        C275   1.403       .  A
C274        H279   1.083       .  S
C275        C276   1.416       .  A
C275        O280   1.372       .  S
C276        C965   1.404       .  A
C277        C964   1.405   1_455  A
C277        C278   1.392       .  A
C277        H281   1.078       .  S
C278        C961   1.405   1_455  A
C278        O282   1.369       .  S
O280        H284   0.992       .  S
O282        H283   0.991       .  S
C285        C630   1.397       .  A
C285        C290   1.411   1_545  A
C286        C629   1.399       .  A
C286        C287   1.401       .  A
C286        H291   1.083       .  S
C287        C632   1.416       .  A
C287        O292   1.372       .  S
C288        C631   1.417       .  A
C288        C289   1.395   1_545  A
C289        C290   1.393       .  A
C289        H293   1.084       .  S
C290        O294   1.367       .  S
O292        H296   0.991       .  S
O294        H295   0.992       .  S
C297        C298   1.405       .  A
C297        C302   1.414       .  A
C298        C299   1.402       .  A
C298        H303   1.083       .  S
C299        C300   1.417       .  A
C299        O304   1.371       .  S
C300        C301   1.402       .  A
C301        C302   1.395       .  A
C301        H305   1.082       .  S
C302        O306   1.373       .  S
O304        H308   0.992       .  S
O306        H307   0.992       .  S
C309        C310   1.405       .  A
C309        C314   1.416       .  A
C310        C311   1.407       .  A
C310        H315   1.083       .  S
C311        C312   1.412       .  A
C311        O316   1.375       .  S
C312        C313   1.398       .  A
C313        C314   1.384       .  A
C313        H317   1.079       .  S
C314        O318   1.372       .  S
O316        H320   0.992       .  S
O318        H319   0.992       .  S
C321        C322   1.403       .  A
C321        C326   1.415   1_655  A
C323        O328   1.362       .  S
C324        C325   1.405   1_655  A
C325        C326   1.405       .  A
C325        H329   1.083       .  S
C326        O330   1.371       .  S
O328       H1020   0.993       .  S
O330        H331   0.992       .  S
H332       O1016   0.993       .  S
C333        C334   1.410       .  A
C333        C682   1.411       .  A
C334        C335   1.403       .  A
C334        H339   1.083       .  S
C335        C336   1.410   1_556  A
C336        C681   1.405       .  A
C337        C680   1.402   1_545  A
C337        C338   1.382   1_554  A
C337        H341   1.083       .  S
C338        C677   1.411   1_545  A
C338        O342   1.370       .  S
O340        H344   0.991       .  S
O342        H343   0.991       .  S
O345       Ni351   1.912       .  S
O345        C366   1.265       .  A
O346       Ni369   1.897       .  S
O346        C355   1.266       .  A
O347       Ni351   1.916       .  S
O347       Ni369   1.927       .  S
O347       Ni363   1.943       .  S
O347        H370   0.967       .  S
C348        O365   1.278       .  A
C348        O357   1.283       .  A
C348        C387   1.480       .  S
O349       Ni368   1.961       .  S
O349        C355   1.274       .  A
O350       Ni368   1.938       .  S
O350        C352   1.272       .  A
Ni351       O354   1.925       .  S
Ni351       O356   1.922       .  S
C352        O362   1.264       .  A
C352        C379   1.466       .  S
O353       Ni369   1.941       .  S
O353        C359   1.266       .  A
O354        C359   1.267       .  A
C355        C389   1.473       .  S
O356        C358   1.277       .  A
O357       Ni368   1.957       .  S
C358        O364   1.282       .  A
C358        C439   1.470       .  S
C359        C437   1.481       .  S
H360        O361   0.966       .  S
O361       Ni369   1.914       .  S
O361       Ni363   1.892       .  S
O361       Ni368   1.944       .  S
O362       Ni363   1.903       .  S
Ni363       O367   1.937       .  S
Ni363       O365   1.894       .  S
O364       Ni369   1.960       .  S
C366        O367   1.273       .  A
C366        C427   1.473       .  S
C371        C493   1.486       .  S
C371       N1060   1.360       .  A
C371        N376   1.357   1_655  A
N372       C1059   1.359       .  A
N372        C373   1.351       .  A
C373        C505   1.485       .  S
C373        N718   1.350   1_565  A
N374        C717   1.352       .  A
N374        C375   1.352   1_655  A
C375        C484   1.480       .  S
C377        C416   1.474       .  S
C377        N378   1.374   1_565  A
C377        N382   1.361       .  A
C379        N380   1.341       .  A
C381        C508   1.483       .  S
C381        N554   1.359       .  A
N382        C553   1.357       .  A
C383        C408   1.473       .  S
C383        N384   1.364       .  A
C383        N388   1.374       .  A
N384        C385   1.355   1_554  A
C385        C653   1.470       .  S
C385        N558   1.338   1_556  A
N386        C557   1.343       .  A
N386        C387   1.347       .  A
C387        N560   1.368       .  A
N388        C559   1.369       .  A
C389       N1078   1.367       .  A
C389        N394   1.346       .  A
N390       C1077   1.367       .  A
N390        C563   1.374   1_655  A
C391        C409   1.477       .  S
C391        N562   1.372   1_455  A
C391        N392   1.363       .  A
N392        C565   1.355   1_454  A
C393        C496   1.485       .  S
C393        N564   1.356   1_655  A
C393       N1082   1.345       .  A
N394       C1081   1.346       .  A
O395       Ni401   1.916       .  S
O395        C416   1.264       .  A
O396       Ni419   1.896       .  S
O396        C405   1.267       .  A
O397       Ni401   1.918       .  S
O397       Ni419   1.921       .  S
O397       Ni413   1.943       .  S
O397        H420   0.964       .  S
C398        O415   1.274       .  A
C398        O407   1.285       .  A
C398        C441   1.479       .  S
O399       Ni418   1.958       .  S
O399        C405   1.273       .  A
O400       Ni418   1.947       .  S
O400        C402   1.273       .  A
Ni401       O404   1.923       .  S
Ni401       O406   1.927       .  S
C402        O412   1.264       .  A
C402        C431   1.479       .  S
O403       Ni419   1.932       .  S
O403        C409   1.266       .  A
O404        C409   1.265       .  A
C405        C433   1.480       .  S
O406        C408   1.281       .  A
O407       Ni418   1.966       .  S
C408        O414   1.285       .  A
H410        O411   0.966       .  S
O411       Ni419   1.922       .  S
O411       Ni413   1.894       .  S
O411       Ni418   1.948       .  S
O412       Ni413   1.912       .  S
Ni413       O417   1.930       .  S
Ni413       O415   1.885       .  S
O414       Ni419   1.957       .  S
C416        O417   1.270       .  A
C421        C445   1.476       .  S
C421       N1110   1.356       .  A
C421        N426   1.358       .  A
N422       C1109   1.356   1_455  A
N422        C423   1.349       .  A
C423        C460   1.466       .  S
C423        N768   1.354       .  A
N424        C767   1.354   1_565  A
N424        C425   1.354       .  A
C425        C472   1.485       .  S
C427        N428   1.361       .  A
N428        C429   1.354       .  A
C429        C457   1.477       .  S
N430        C431   1.349       .  A
C431        N432   1.373       .  A
C433        N434   1.357       .  A
C433       N1126   1.375       .  A
N434       C1123   1.352   1_455  A
C435        C448   1.484       .  S
C435       N1122   1.349       .  A
C435        N436   1.346       .  A
N436        C437   1.356       .  A
C437        N438   1.375       .  A
N438       C1121   1.376       .  A
C439        N440   1.372       .  A
C439        N444   1.359       .  A
N440        C441   1.369       .  A
C441        N442   1.354       .  A
N442        C443   1.347       .  A
C443        C469   1.484       .  S
C443        N444   1.354       .  A
C445        C446   1.405       .  A
C445       C1138   1.406       .  A
C446        C447   1.398       .  A
C446        H451   1.083       .  S
C447        C448   1.413       .  A
C447        O452   1.372       .  S
C448       C1137   1.405       .  A
C449       C1136   1.404   1_455  A
C449        C450   1.393       .  A
C449        H453   1.079       .  S
C450       C1133   1.407   1_455  A
C450        O454   1.370       .  S
O452        H456   0.992       .  S
O454        H455   0.991       .  S
C457        C462   1.408       .  A
C458        C459   1.399       .  A
C458        H463   1.082       .  S
C459        O464   1.373       .  S
C460        C461   1.394       .  A
C461        C462   1.391       .  A
C461        H465   1.084       .  S
C462        O466   1.365       .  S
O464        H468   0.991       .  S
O466        H467   0.991       .  S
C469        C470   1.403       .  A
C469        C474   1.414       .  A
C470        C471   1.399       .  A
C470        H475   1.083       .  S
C471        C472   1.417       .  A
C471        O476   1.371       .  S
C472        C473   1.403       .  A
C473        C474   1.395       .  A
C473        H477   1.082       .  S
C474        O478   1.373       .  S
O476        H480   0.992       .  S
O478        H479   0.992       .  S
C481        C557   1.485       .  S
C481        C482   1.405       .  A
C481        C486   1.416       .  A
C482        C483   1.408       .  A
C482        H487   1.083       .  S
C483        C484   1.413       .  A
C483        O488   1.376       .  S
C484        C485   1.397       .  A
C485        C486   1.385       .  A
C485        H489   1.080       .  S
C486        O490   1.372       .  S
O488        H492   0.992       .  S
O490        H491   0.992       .  S
C493        C494   1.400       .  A
C493        C498   1.416   1_655  A
C494        C667   1.388       .  A
C494        H671   1.085       .  S
C495        C666   1.391       .  A
C495        C668   1.413       .  A
C495        O500   1.363       .  S
C496        C667   1.414       .  A
C496        C497   1.405   1_655  A
C497        C498   1.405       .  A
C497        H501   1.083       .  S
C498        O502   1.371       .  S
H499        C666   1.085       .  S
O500       H1192   0.993       .  S
O502        H503   0.992       .  S
H504       O1188   0.993       .  S
C505        C506   1.412       .  A
C506        C507   1.404       .  A
C506        H511   1.083       .  S
C507        C508   1.410       .  A
C507        O684   1.372       .  S
C509        C510   1.383       .  A
C509        H513   1.083       .  S
C510        O514   1.370       .  S
O512        C679   1.371       .  S
O512        H516   0.991   1_556  S
O514        H515   0.992       .  S
O517       Ni523   1.915       .  S
O517        C538   1.264       .  A
O518       Ni541   1.894   1_554  S
O518        C527   1.265       .  A
O519       Ni523   1.912       .  S
O519       Ni541   1.924       .  S
O519       Ni535   1.943       .  S
O519        H542   0.967       .  S
C520        O537   1.278   1_554  A
C520        O529   1.282       .  A
C520        C559   1.470       .  S
O521       Ni540   1.955       .  S
O521        C527   1.272       .  A
O522       Ni540   1.940       .  S
O522        C524   1.274       .  A
Ni523       O526   1.926       .  S
Ni523       O528   1.930       .  S
C524        O534   1.264       .  A
C524        C551   1.470       .  S
O525       Ni541   1.936       .  S
O525        C531   1.263       .  A
O526        C531   1.267       .  A
C527        C561   1.475       .  S
O528        C530   1.280       .  A
O529       Ni540   1.954       .  S
C530        O536   1.283       .  A
C530        C611   1.478       .  S
C531        C609   1.481       .  S
H532        O533   0.966       .  S
O533       Ni541   1.910       .  S
O533       Ni535   1.890       .  S
O533       Ni540   1.940   1_556  S
O534       Ni535   1.910   1_554  S
Ni535       O539   1.943       .  S
Ni535       O537   1.883       .  S
O536       Ni541   1.963       .  S
C538        O539   1.275       .  A
C538        C599   1.477       .  S
C543        C665   1.480       .  S
C543       N1232   1.357       .  A
C543        N548   1.355   1_665  A
N544       C1231   1.359       .  A
N544        C545   1.351       .  A
C545        C677   1.483       .  S
C545        N890   1.352   1_565  A
N546        C889   1.350       .  A
N546        C547   1.350   1_655  A
C547        C656   1.468       .  S
C549        C588   1.478       .  S
C549        N550   1.374   1_565  A
C549        N554   1.362       .  A
C551        N552   1.342       .  A
C553        C680   1.479       .  S
C555        C580   1.472       .  S
C555        N556   1.364       .  A
C555        N560   1.374       .  A
N556        C557   1.356       .  A
N558        C559   1.344       .  A
C561       N1250   1.367       .  A
C561        N566   1.353   1_554  A
N562       C1249   1.368       .  A
C563        C581   1.479       .  S
C563        N564   1.365       .  A
C565        C668   1.492       .  S
C565       N1254   1.349       .  A
N566       C1253   1.352       .  A
O567       Ni573   1.918       .  S
O567        C588   1.265       .  A
O568       Ni591   1.901       .  S
O568        C577   1.267       .  A
O569       Ni573   1.921       .  S
O569       Ni591   1.922       .  S
O569       Ni585   1.946       .  S
O569        H592   0.963       .  S
C570        O587   1.277       .  A
C570        O579   1.286       .  A
C570        C613   1.485       .  S
O571       Ni590   1.961       .  S
O571        C577   1.273       .  A
O572       Ni590   1.951       .  S
O572        C574   1.274       .  A
Ni573       O576   1.928       .  S
Ni573       O578   1.919       .  S
C574        O584   1.264       .  A
C574        C603   1.483       .  S
O575       Ni591   1.927       .  S
O575        C581   1.264       .  A
O576        C581   1.266       .  A
C577        C605   1.483       .  S
O578        C580   1.279       .  A
O579       Ni590   1.970       .  S
C580        O586   1.287       .  A
H582        O583   0.966       .  S
O583       Ni591   1.919       .  S
O583       Ni585   1.894       .  S
O583       Ni590   1.947       .  S
O584       Ni585   1.914       .  S
Ni585       O589   1.935       .  S
Ni585       O587   1.894       .  S
O586       Ni591   1.964       .  S
C588        O589   1.271       .  A
C593        C617   1.475       .  S
C593       N1282   1.354       .  A
C593        N598   1.358       .  A
N594       C1281   1.354   1_455  A
N594        C595   1.348       .  A
C595        C632   1.464       .  S
C595        N940   1.355       .  A
N596        C939   1.356   1_565  A
N596        C597   1.356       .  A
C597        C644   1.487       .  S
C599        N600   1.360       .  A
N600        C601   1.353       .  A
C601        C629   1.471       .  S
N602        C603   1.350       .  A
C603        N604   1.373       .  A
C605        N606   1.354       .  A
C605       N1298   1.376       .  A
N606       C1295   1.350   1_455  A
C607        C620   1.484       .  S
C607       N1294   1.352       .  A
C607        N608   1.345       .  A
N608        C609   1.354       .  A
C609        N610   1.376       .  A
N610       C1293   1.376       .  A
C611        N612   1.375       .  A
C611        N616   1.363       .  A
N612        C613   1.372       .  A
C613        N614   1.353       .  A
N614        C615   1.348       .  A
C615        C641   1.487       .  S
C615        N616   1.356       .  A
C617        C618   1.404       .  A
C617       C1310   1.406       .  A
C618        C619   1.398       .  A
C618        H623   1.084       .  S
C619        C620   1.415       .  A
C619        O624   1.373       .  S
C620       C1309   1.404       .  A
C621       C1308   1.405   1_455  A
C621        C622   1.391       .  A
C621        H625   1.078       .  S
C622       C1305   1.406   1_455  A
C622        O626   1.372       .  S
O624        H628   0.992       .  S
O626        H627   0.991       .  S
C629        C634   1.411       .  A
C630        C631   1.401       .  A
C630        H635   1.080       .  S
C631        O636   1.372       .  S
C632        C633   1.393       .  A
C633        C634   1.390       .  A
C633        H637   1.084       .  S
C634        O638   1.369       .  S
O636        H640   0.991       .  S
O638        H639   0.992       .  S
C641        C642   1.405       .  A
C641        C646   1.415       .  A
C642        C643   1.403       .  A
C642        H647   1.083       .  S
C643        C644   1.418       .  A
C643        O648   1.372       .  S
C644        C645   1.401       .  A
C645        C646   1.395       .  A
C645        H649   1.083       .  S
C646        O650   1.373       .  S
O648        H652   0.992       .  S
O650        H651   0.992       .  S
C653        C654   1.402       .  A
C653        C658   1.411       .  A
C654        C655   1.403       .  A
C654        H659   1.083       .  S
C655        C656   1.411       .  A
C655        O660   1.373       .  S
C656        C657   1.401       .  A
C657        C658   1.389       .  A
C657        H661   1.084       .  S
C658        O662   1.374       .  S
O660        H664   0.992       .  S
O662        H663   0.992       .  S
C665        C666   1.396       .  A
C665        C670   1.415   1_655  A
C667        O672   1.369       .  S
C668        C669   1.406   1_655  A
C669        C670   1.404       .  A
C669        H673   1.083       .  S
C670        O674   1.369       .  S
O672       H1364   0.992       .  S
O674        H675   0.991       .  S
H676       O1360   0.992       .  S
C677        C678   1.410       .  A
C678        C679   1.406       .  A
C678        H683   1.083       .  S
C679        C680   1.411   1_556  A
C681        C682   1.386   1_554  A
C681        H685   1.083       .  S
C682        O686   1.371       .  S
O684        H688   0.992       .  S
O686        H687   0.992       .  S
O689       Ni695   1.913       .  S
O689        C710   1.264       .  A
O690       Ni713   1.895       .  S
O690        C699   1.265       .  A
O691       Ni695   1.911       .  S
O691       Ni713   1.921       .  S
O691       Ni707   1.943       .  S
O691        H714   0.967       .  S
C692        O709   1.278       .  A
C692        O701   1.282       .  A
C692        C731   1.470       .  S
O693       Ni712   1.952       .  S
O693        C699   1.271       .  A
O694       Ni712   1.937       .  S
O694        C696   1.272       .  A
Ni695       O698   1.928       .  S
Ni695       O700   1.928       .  S
C696        O706   1.263       .  A
C696        C723   1.467       .  S
O697       Ni713   1.937       .  S
O697        C703   1.264       .  A
O698        C703   1.267       .  A
C699        C733   1.472       .  S
O700        C702   1.280       .  A
O701       Ni712   1.955       .  S
C702        O708   1.283       .  A
C702        C783   1.473       .  S
C703        C781   1.482       .  S
H704        O705   0.966       .  S
O705       Ni713   1.910       .  S
O705       Ni707   1.889       .  S
O705       Ni712   1.940       .  S
O706       Ni707   1.908       .  S
Ni707       O711   1.942       .  S
Ni707       O709   1.881       .  S
O708       Ni713   1.961       .  S
C710        O711   1.274       .  A
C710        C771   1.475       .  S
C715        C837   1.481       .  S
C715        N720   1.356       .  A
N716        C717   1.351       .  A
C717        C849   1.481       .  S
N718        C719   1.350       .  A
C719        C828   1.470       .  S
C719       N1064   1.361   1_545  A
N720       C1063   1.362       .  A
C721        C760   1.482       .  S
C721        N722   1.374       .  A
C721        N726   1.364       .  A
N722       C1239   1.368       .  A
C723       N1238   1.367       .  A
C723        N724   1.343       .  A
N724       C1069   1.349   1_545  A
C725        C852   1.480       .  S
C725       N1068   1.349       .  A
C725        N898   1.356       .  A
N726        C897   1.361       .  A
C727        C752   1.473       .  S
C727        N728   1.364       .  A
C727        N732   1.376       .  A
N728        C729   1.356   1_554  A
C729        C997   1.485       .  S
C729        N902   1.342       .  A
N730        C901   1.338       .  A
N730        C731   1.342       .  A
C731        N904   1.367       .  A
N732        C903   1.369       .  A
C733        N738   1.353       .  A
N734        C907   1.371       .  A
C735        C753   1.477       .  S
C735        N906   1.374       .  A
C735        N736   1.361       .  A
N736        C909   1.353   1_554  A
C737        C840   1.488       .  S
C737        N908   1.353       .  A
O739       Ni745   1.917       .  S
O739        C760   1.264       .  A
O740       Ni763   1.903       .  S
O740        C749   1.268       .  A
O741       Ni745   1.917       .  S
O741       Ni763   1.924       .  S
O741       Ni757   1.943       .  S
O741        H764   0.964       .  S
C742        O759   1.275       .  A
C742        O751   1.287       .  A
C742        C785   1.480       .  S
O743       Ni762   1.959       .  S
O743        C749   1.273       .  A
O744       Ni762   1.944       .  S
O744        C746   1.272       .  A
Ni745       O748   1.927       .  S
Ni745       O750   1.920       .  S
C746        O756   1.263       .  A
C746        C775   1.476       .  S
O747       Ni763   1.927       .  S
O747        C753   1.263       .  A
O748        C753   1.267       .  A
C749        C777   1.480       .  S
O750        C752   1.279       .  A
O751       Ni762   1.970       .  S
C752        O758   1.287       .  A
H754        O755   0.966       .  S
O755       Ni763   1.914       .  S
O755       Ni757   1.896       .  S
O755       Ni762   1.943       .  S
O756       Ni757   1.910       .  S
Ni757       O761   1.941       .  S
Ni757       O759   1.883       .  S
O758       Ni763   1.965       .  S
C760        O761   1.273       .  A
C765        C789   1.476       .  S
C765        N770   1.359   1_545  A
N766        C767   1.351       .  A
C767        C804   1.462       .  S
N768        C769   1.356   1_455  A
C769        C816   1.485       .  S
C769       N1114   1.362       .  A
N770       C1113   1.361       .  A
C771        N772   1.359       .  A
C771       N1120   1.375   1_545  A
N772        C773   1.353   1_545  A
C773        C801   1.471   1_565  S
C773       N1118   1.351       .  A
N774       C1117   1.351       .  A
N774        C775   1.351       .  A
C775        N776   1.369       .  A
N776       C1115   1.375       .  A
C777        N778   1.353       .  A
C779        C792   1.485       .  S
C779        N780   1.348       .  A
N780        C781   1.357       .  A
C781        N782   1.375       .  A
C783        N784   1.374       .  A
C783        N788   1.360       .  A
N784        C785   1.371       .  A
C785        N786   1.353       .  A
N786        C787   1.346       .  A
C787        C813   1.481       .  S
C787        N788   1.354       .  A
C789        C790   1.404       .  A
C790        C791   1.398       .  A
C790        H795   1.083       .  S
C791        C792   1.413       .  A
C791        O796   1.372       .  S
C793        C794   1.393       .  A
C793        H797   1.078       .  S
C794        O798   1.371       .  S
O796        H800   0.992       .  S
O798        H799   0.991       .  S
C801       C1146   1.397       .  A
C801        C806   1.411   1_545  A
C802       C1145   1.398       .  A
C802        C803   1.400       .  A
C802        H807   1.080       .  S
C803       C1148   1.414       .  A
C803        O808   1.372       .  S
C804       C1147   1.414       .  A
C804        C805   1.395   1_545  A
C805        C806   1.393       .  A
C805        H809   1.084       .  S
C806        O810   1.368       .  S
O808        H812   0.991       .  S
O810        H811   0.992       .  S
C813        C814   1.401       .  A
C813        C818   1.414       .  A
C814        C815   1.398       .  A
C814        H819   1.083       .  S
C815        C816   1.418       .  A
C815        O820   1.371       .  S
C816        C817   1.403       .  A
C817        C818   1.397       .  A
C817        H821   1.083       .  S
C818        O822   1.373       .  S
O820        H824   0.992       .  S
O822        H823   0.992       .  S
C825        C901   1.474       .  S
C825        C826   1.403       .  A
C825        C830   1.414       .  A
C826        C827   1.406       .  A
C826        H831   1.083       .  S
C827        C828   1.412       .  A
C827        O832   1.374       .  S
C828        C829   1.399       .  A
C829        C830   1.385       .  A
C829        H833   1.083       .  S
C830        O834   1.373       .  S
O832        H836   0.991       .  S
O834        H835   0.992       .  S
C837        C838   1.396       .  A
C837        C842   1.415       .  A
C838       C1011   1.387       .  A
C838       H1015   1.085       .  S
C839       C1010   1.390       .  A
C839       C1012   1.412       .  A
C839        O844   1.366       .  S
C840       C1011   1.412       .  A
C840        C841   1.406       .  A
C841        C842   1.404       .  A
C841        H845   1.083       .  S
C842        O846   1.370       .  S
H843       C1010   1.085       .  S
O846        H847   0.991       .  S
C849        C850   1.409       .  A
C849       C1198   1.411       .  A
C850        C851   1.405       .  A
C850        H855   1.083       .  S
C851        C852   1.411       .  A
C851       O1028   1.372       .  S
C852       C1197   1.403       .  A
C853       C1196   1.403   1_545  A
C853        C854   1.387       .  A
C853        H857   1.084       .  S
C854       C1193   1.414   1_545  A
C854        O858   1.372       .  S
O856       C1023   1.371       .  S
O856        H860   0.991   1_556  S
O858        H859   0.992       .  S
O861       Ni867   1.909       .  S
O861        C882   1.264       .  A
O862       Ni885   1.900   1_554  S
O862        C871   1.267       .  A
O863       Ni867   1.915       .  S
O863       Ni885   1.925       .  S
O863       Ni879   1.942       .  S
O863        H886   0.967       .  S
C864        O881   1.281   1_554  A
C864        O873   1.283       .  A
C864        C903   1.482       .  S
O865       Ni884   1.963       .  S
O865        C871   1.274       .  A
O866       Ni884   1.939       .  S
O866        C868   1.272       .  A
Ni867       O870   1.926       .  S
Ni867       O872   1.921       .  S
C868        O878   1.264       .  A
C868        C895   1.466       .  S
O869       Ni885   1.942       .  S
O869        C875   1.266       .  A
O870        C875   1.266       .  A
C871        C905   1.474       .  S
O872        C874   1.276       .  A
O873       Ni884   1.957       .  S
C874        O880   1.284       .  A
C874        C955   1.472       .  S
C875        C953   1.480       .  S
H876        O877   0.966       .  S
O877       Ni885   1.912       .  S
O877       Ni879   1.895       .  S
O877       Ni884   1.945   1_556  S
O878       Ni879   1.900   1_554  S
Ni879       O883   1.947       .  S
Ni879       O881   1.898       .  S
O880       Ni885   1.966       .  S
C882        O883   1.276       .  A
C882        C943   1.478       .  S
C887       C1009   1.483       .  S
C887        N892   1.358       .  A
N888        C889   1.351       .  A
C889       C1021   1.486       .  S
N890        C891   1.352       .  A
C891       C1000   1.481       .  S
C891       N1236   1.362       .  A
N892       C1235   1.363       .  A
C893        C932   1.471       .  S
C893        N894   1.372       .  A
C893        N898   1.360       .  A
N894       C1067   1.366       .  A
C895       N1066   1.366       .  A
C895        N896   1.342       .  A
N896       C1241   1.348       .  A
C897       C1024   1.482       .  S
C897       N1240   1.347       .  A
C899        C924   1.472       .  S
C899        N900   1.366       .  A
C899        N904   1.374       .  A
N900        C901   1.357       .  A
N902        C903   1.347   1_556  A
C905        N910   1.344   1_554  A
C907        C925   1.471       .  S
C907        N908   1.362       .  A
C909       C1012   1.489       .  S
O911       Ni917   1.914       .  S
O911        C932   1.263       .  A
O912       Ni935   1.896       .  S
O912        C921   1.267       .  A
O913       Ni917   1.918       .  S
O913       Ni935   1.919       .  S
O913       Ni929   1.942       .  S
O913        H936   0.964       .  S
C914        O931   1.274       .  A
C914        O923   1.287       .  A
C914        C957   1.483       .  S
O915       Ni934   1.959       .  S
O915        C921   1.272       .  A
O916       Ni934   1.948       .  S
O916        C918   1.273       .  A
Ni917       O920   1.921       .  S
Ni917       O922   1.923       .  S
C918        O928   1.263       .  A
C918        C947   1.479       .  S
O919       Ni935   1.924       .  S
O919        C925   1.263       .  A
O920        C925   1.265       .  A
C921        C949   1.483       .  S
O922        C924   1.280       .  A
O923       Ni934   1.972       .  S
C924        O930   1.286       .  A
H926        O927   0.966       .  S
O927       Ni935   1.921       .  S
O927       Ni929   1.892       .  S
O927       Ni934   1.949       .  S
O928       Ni929   1.911       .  S
Ni929       O933   1.928       .  S
Ni929       O931   1.884       .  S
O930       Ni935   1.961       .  S
C932        O933   1.269       .  A
C937        C961   1.477       .  S
C937        N942   1.357   1_545  A
N938        C939   1.349       .  A
C939        C976   1.466       .  S
N940        C941   1.357   1_455  A
C941        C988   1.486       .  S
C941       N1286   1.362       .  A
N942       C1285   1.361       .  A
C943        N944   1.362       .  A
C943       N1292   1.379   1_545  A
N944        C945   1.354       .  A
C945        C973   1.476       .  S
C945       N1290   1.349   1_545  A
N946       C1289   1.350       .  A
N946        C947   1.350       .  A
C947        N948   1.371       .  A
N948       C1287   1.377       .  A
C949        N950   1.357       .  A
C951        C964   1.486       .  S
C951        N952   1.348       .  A
N952        C953   1.357       .  A
C953        N954   1.375   1_655  A
C955        N956   1.374       .  A
C955        N960   1.360       .  A
N956        C957   1.370       .  A
C957        N958   1.353       .  A
N958        C959   1.347       .  A
C959        C985   1.485       .  S
C959        N960   1.353       .  A
C961        C962   1.405       .  A
C962        C963   1.401       .  A
C962        H967   1.084       .  S
C963        C964   1.415       .  A
C963        O968   1.372       .  S
C965        C966   1.392       .  A
C965        H969   1.078       .  S
C966        O970   1.371       .  S
O968        H972   0.992       .  S
O970        H971   0.991       .  S
C973       C1318   1.398       .  A
C973        C978   1.410   1_545  A
C974       C1317   1.399       .  A
C974        C975   1.401       .  A
C974        H979   1.081       .  S
C975       C1320   1.415       .  A
C975        O980   1.372       .  S
C976       C1319   1.415       .  A
C976        C977   1.394   1_545  A
C977        C978   1.390       .  A
C977        H981   1.084       .  S
C978        O982   1.366       .  S
O980        H984   0.991       .  S
O982        H983   0.991       .  S
C985        C986   1.404       .  A
C985        C990   1.414       .  A
C986        C987   1.401       .  A
C986        H991   1.083       .  S
C987        C988   1.416       .  A
C987        O992   1.371       .  S
C988        C989   1.402       .  A
C989        C990   1.395       .  A
C989        H993   1.081       .  S
C990        O994   1.373       .  S
O992        H996   0.992       .  S
O994        H995   0.992       .  S
C997        C998   1.404       .  A
C997       C1002   1.417       .  A
C998        C999   1.408       .  A
C998       H1003   1.083       .  S
C999       C1000   1.414       .  A
C999       O1004   1.377       .  S
C1000      C1001   1.398       .  A
C1001      C1002   1.387       .  A
C1001      H1005   1.081       .  S
C1002      O1006   1.372       .  S
O1004      H1008   0.992       .  S
O1006      H1007   0.992       .  S
C1009      C1010   1.399       .  A
C1009      C1014   1.414       .  A
C1011      O1016   1.364       .  S
C1012      C1013   1.407       .  A
C1013      C1014   1.404       .  A
C1013      H1017   1.083       .  S
C1014      O1018   1.370       .  S
O1018      H1019   0.991       .  S
C1021      C1022   1.412       .  A
C1021      C1370   1.412       .  A
C1022      C1023   1.403       .  A
C1022      H1027   1.083       .  S
C1023      C1024   1.409   1_556  A
C1024      C1369   1.407   1_554  A
C1025      C1368   1.405   1_546  A
C1025      C1026   1.385       .  A
C1025      H1029   1.083   1_556  S
C1026      C1365   1.411       .  A
C1026      O1030   1.370       .  S
O1028      H1032   0.991       .  S
O1030      H1031   0.992       .  S
O1033     Ni1039   1.907       .  S
O1033      C1054   1.263       .  A
O1034     Ni1057   1.898       .  S
O1034      C1043   1.266       .  A
O1035     Ni1039   1.913       .  S
O1035     Ni1057   1.923       .  S
O1035     Ni1051   1.944       .  S
O1035      H1058   0.967       .  S
C1036      O1053   1.280       .  A
C1036      O1045   1.282       .  A
C1036      C1075   1.481       .  S
O1037     Ni1056   1.958       .  S
O1037      C1043   1.273       .  A
O1038     Ni1056   1.938       .  S
O1038      C1040   1.272       .  A
Ni1039     O1042   1.923       .  S
Ni1039     O1044   1.924       .  S
C1040      O1050   1.263       .  A
C1040      C1067   1.466       .  S
O1041     Ni1057   1.941       .  S
O1041      C1047   1.265       .  A
O1042      C1047   1.266       .  A
C1043      C1077   1.471       .  S
O1044      C1046   1.278       .  A
O1045     Ni1056   1.958       .  S
C1046      O1052   1.283       .  A
C1046      C1127   1.472       .  S
C1047      C1125   1.480       .  S
H1048      O1049   0.966       .  S
O1049     Ni1057   1.913       .  S
O1049     Ni1051   1.892       .  S
O1049     Ni1056   1.945       .  S
O1050     Ni1051   1.903       .  S
Ni1051     O1055   1.943       .  S
Ni1051     O1053   1.895       .  S
O1052     Ni1057   1.961       .  S
C1054      O1055   1.275       .  A
C1054      C1115   1.473       .  S
C1059      C1181   1.488       .  S
C1059      N1064   1.357       .  A
N1060      C1061   1.352       .  A
C1061      C1193   1.485       .  S
N1062      C1063   1.351       .  A
C1063      C1172   1.477       .  S
C1065      C1104   1.475       .  S
C1065      N1066   1.373   1_565  A
C1065      N1070   1.363       .  A
C1067      N1068   1.343       .  A
C1069      C1196   1.479       .  S
C1069      N1242   1.358       .  A
N1070      C1241   1.359   1_565  A
C1071      C1096   1.473       .  S
C1071      N1072   1.366       .  A
C1071      N1076   1.375       .  A
N1072      C1073   1.357   1_554  A
C1073      C1341   1.482       .  S
C1073      N1246   1.337       .  A
N1074      C1245   1.340       .  A
N1074      C1075   1.344       .  A
C1075      N1248   1.371       .  A
N1076      C1247   1.368       .  A
C1077      N1082   1.346       .  A
N1078      C1251   1.374       .  A
C1079      C1097   1.473       .  S
C1079      N1250   1.371       .  A
C1079      N1080   1.361       .  A
N1080      C1253   1.353   1_554  A
C1081      C1184   1.485       .  S
C1081      N1252   1.355       .  A
O1083     Ni1089   1.913       .  S
O1083      C1104   1.263       .  A
O1084     Ni1107   1.901       .  S
O1084      C1093   1.268       .  A
O1085     Ni1089   1.915       .  S
O1085     Ni1107   1.919       .  S
O1085     Ni1101   1.940       .  S
O1085      H1108   0.964       .  S
C1086      O1103   1.275       .  A
C1086      O1095   1.285       .  A
C1086      C1129   1.479       .  S
O1087     Ni1106   1.956       .  S
O1087      C1093   1.272       .  A
O1088     Ni1106   1.945       .  S
O1088      C1090   1.273       .  A
Ni1089     O1092   1.921       .  S
Ni1089     O1094   1.921       .  S
C1090      O1100   1.263       .  A
C1090      C1119   1.476       .  S
O1091     Ni1107   1.930       .  S
O1091      C1097   1.265       .  A
O1092      C1097   1.264       .  A
C1093      C1121   1.477       .  S
O1094      C1096   1.280       .  A
O1095     Ni1106   1.965       .  S
C1096      O1102   1.287       .  A
H1098      O1099   0.966       .  S
O1099     Ni1107   1.917       .  S
O1099     Ni1101   1.896       .  S
O1099     Ni1106   1.948       .  S
O1100     Ni1101   1.908       .  S
Ni1101     O1105   1.935       .  S
Ni1101     O1103   1.886       .  S
O1102     Ni1107   1.966       .  S
C1104      O1105   1.271       .  A
C1109      C1133   1.479       .  S
C1109      N1114   1.360       .  A
N1110      C1111   1.350       .  A
C1111      C1148   1.464       .  S
N1112      C1113   1.355   1_455  A
C1113      C1160   1.486       .  S
C1115      N1116   1.360       .  A
N1116      C1117   1.354       .  A
C1117      C1145   1.475       .  S
N1118      C1119   1.351       .  A
C1119      N1120   1.370       .  A
C1121      N1122   1.354       .  A
C1123      C1136   1.487       .  S
C1123      N1124   1.347       .  A
N1124      C1125   1.356       .  A
C1125      N1126   1.374   1_655  A
C1127      N1128   1.373       .  A
C1127      N1132   1.360       .  A
N1128      C1129   1.370       .  A
C1129      N1130   1.353       .  A
N1130      C1131   1.346       .  A
C1131      C1157   1.483       .  S
C1131      N1132   1.354       .  A
C1133      C1134   1.404       .  A
C1134      C1135   1.401       .  A
C1134      H1139   1.083       .  S
C1135      C1136   1.415       .  A
C1135      O1140   1.372       .  S
C1137      C1138   1.392       .  A
C1137      H1141   1.077       .  S
C1138      O1142   1.371       .  S
O1140      H1144   0.992       .  S
O1142      H1143   0.991       .  S
C1145      C1150   1.410       .  A
C1146      C1147   1.398       .  A
C1146      H1151   1.081       .  S
C1147      O1152   1.373       .  S
C1148      C1149   1.395       .  A
C1149      C1150   1.392       .  A
C1149      H1153   1.084       .  S
C1150      O1154   1.366       .  S
O1152      H1156   0.991       .  S
O1154      H1155   0.992       .  S
C1157      C1158   1.402       .  A
C1157      C1162   1.415       .  A
C1158      C1159   1.398       .  A
C1158      H1163   1.083       .  S
C1159      C1160   1.417       .  A
C1159      O1164   1.371       .  S
C1160      C1161   1.403       .  A
C1161      C1162   1.396       .  A
C1161      H1165   1.083       .  S
C1162      O1166   1.373       .  S
O1164      H1168   0.992       .  S
O1166      H1167   0.992       .  S
C1169      C1245   1.480       .  S
C1169      C1170   1.404       .  A
C1169      C1174   1.416       .  A
C1170      C1171   1.407       .  A
C1170      H1175   1.083       .  S
C1171      C1172   1.413       .  A
C1171      O1176   1.376       .  S
C1172      C1173   1.397       .  A
C1173      C1174   1.384       .  A
C1173      H1177   1.080       .  S
C1174      O1178   1.372       .  S
O1176      H1180   0.992       .  S
O1178      H1179   0.992       .  S
C1181      C1182   1.402       .  A
C1181      C1186   1.416       .  A
C1182      C1355   1.387       .  A
C1182      H1359   1.084       .  S
C1183      C1354   1.391       .  A
C1183      C1356   1.412       .  A
C1183      O1188   1.362       .  S
C1184      C1355   1.413       .  A
C1184      C1185   1.406       .  A
C1185      C1186   1.406       .  A
C1185      H1189   1.083       .  S
C1186      O1190   1.371       .  S
H1187      C1354   1.085       .  S
O1190      H1191   0.992       .  S
C1193      C1194   1.410       .  A
C1194      C1195   1.403       .  A
C1194      H1199   1.083       .  S
C1195      C1196   1.410       .  A
C1195      O1372   1.371       .  S
C1197      C1198   1.383       .  A
C1197      H1201   1.083       .  S
C1198      O1202   1.370       .  S
O1200      C1367   1.371       .  S
O1200      H1204   0.991   1_556  S
O1202      H1203   0.992       .  S
O1205     Ni1211   1.910       .  S
O1205      C1226   1.264       .  A
O1206     Ni1229   1.897   1_554  S
O1206      C1215   1.266       .  A
O1207     Ni1211   1.917       .  S
O1207     Ni1229   1.925       .  S
O1207     Ni1223   1.944       .  S
O1207      H1230   0.967       .  S
C1208      O1225   1.280   1_554  A
C1208      O1217   1.280       .  A
C1208      C1247   1.473       .  S
O1209     Ni1228   1.954       .  S
O1209      C1215   1.271       .  A
O1210     Ni1228   1.939       .  S
O1210      C1212   1.273       .  A
Ni1211     O1214   1.926       .  S
Ni1211     O1216   1.922       .  S
C1212      O1222   1.264       .  A
C1212      C1239   1.468       .  S
O1213     Ni1229   1.940       .  S
O1213      C1219   1.264       .  A
O1214      C1219   1.267       .  A
C1215      C1249   1.473       .  S
O1216      C1218   1.277       .  A
O1217     Ni1228   1.949       .  S
C1218      O1224   1.283       .  A
C1218      C1299   1.476       .  S
C1219      C1297   1.484       .  S
H1220      O1221   0.966       .  S
O1221     Ni1229   1.913       .  S
O1221     Ni1223   1.891       .  S
O1221     Ni1228   1.948   1_556  S
O1222     Ni1223   1.905   1_554  S
Ni1223     O1227   1.944       .  S
Ni1223     O1225   1.890       .  S
O1224     Ni1229   1.968       .  S
C1226      O1227   1.275       .  A
C1226      C1287   1.477       .  S
C1231      C1353   1.477       .  S
C1231      N1236   1.357   1_565  A
N1232      C1233   1.351   1_565  A
C1233      C1365   1.484       .  S
N1234      C1235   1.352       .  A
C1235      C1344   1.477       .  S
C1237      C1276   1.476       .  S
C1237      N1238   1.373   1_565  A
C1237      N1242   1.361       .  A
C1239      N1240   1.341       .  A
C1241      C1368   1.482   1_545  S
C1243      C1268   1.473       .  S
C1243      N1244   1.363       .  A
C1243      N1248   1.378       .  A
N1244      C1245   1.354       .  A
N1246      C1247   1.342   1_556  A
C1249      N1254   1.350   1_554  A
C1251      C1269   1.478       .  S
C1251      N1252   1.364       .  A
C1253      C1356   1.492       .  S
O1255     Ni1261   1.918       .  S
O1255      C1276   1.264       .  A
O1256     Ni1279   1.899       .  S
O1256      C1265   1.267       .  A
O1257     Ni1261   1.919       .  S
O1257     Ni1279   1.921       .  S
O1257     Ni1273   1.944       .  S
O1257      H1280   0.964       .  S
C1258      O1275   1.275       .  A
C1258      O1267   1.287       .  A
C1258      C1301   1.484       .  S
O1259     Ni1278   1.964       .  S
O1259      C1265   1.273       .  A
O1260     Ni1278   1.951       .  S
O1260      C1262   1.274       .  A
Ni1261     O1264   1.929       .  S
Ni1261     O1266   1.922       .  S
C1262      O1272   1.264       .  A
C1262      C1291   1.483       .  S
O1263     Ni1279   1.926       .  S
O1263      C1269   1.264       .  A
O1264      C1269   1.267       .  A
C1265      C1293   1.485       .  S
O1266      C1268   1.280       .  A
O1267     Ni1278   1.972       .  S
C1268      O1274   1.287       .  A
H1270      O1271   0.966       .  S
O1271     Ni1279   1.916       .  S
O1271     Ni1273   1.892       .  S
O1271     Ni1278   1.945       .  S
O1272     Ni1273   1.913       .  S
Ni1273     O1277   1.931       .  S
Ni1273     O1275   1.887       .  S
O1274     Ni1279   1.963       .  S
C1276      O1277   1.270       .  A
C1281      C1305   1.474       .  S
C1281      N1286   1.358       .  A
N1282      C1283   1.348       .  A
C1283      C1320   1.464       .  S
N1284      C1285   1.359   1_455  A
C1285      C1332   1.489       .  S
C1287      N1288   1.361       .  A
N1288      C1289   1.355       .  A
C1289      C1317   1.476       .  S
N1290      C1291   1.349       .  A
C1291      N1292   1.373       .  A
C1293      N1294   1.356       .  A
C1295      C1308   1.484       .  S
C1295      N1296   1.347       .  A
N1296      C1297   1.357       .  A
C1297      N1298   1.377   1_655  A
C1299      N1300   1.373       .  A
C1299      N1304   1.362       .  A
N1300      C1301   1.370       .  A
C1301      N1302   1.355       .  A
N1302      C1303   1.349       .  A
C1303      C1329   1.489       .  S
C1303      N1304   1.356       .  A
C1305      C1306   1.405       .  A
C1306      C1307   1.399       .  A
C1306      H1311   1.083       .  S
C1307      C1308   1.413       .  A
C1307      O1312   1.373       .  S
C1309      C1310   1.391       .  A
C1309      H1313   1.078       .  S
C1310      O1314   1.371       .  S
O1312      H1316   0.992       .  S
O1314      H1315   0.991       .  S
C1317      C1322   1.410       .  A
C1318      C1319   1.401       .  A
C1318      H1323   1.080       .  S
C1319      O1324   1.372       .  S
C1320      C1321   1.393       .  A
C1321      C1322   1.391       .  A
C1321      H1325   1.084       .  S
C1322      O1326   1.367       .  S
O1324      H1328   0.991       .  S
O1326      H1327   0.991       .  S
C1329      C1330   1.405       .  A
C1329      C1334   1.415       .  A
C1330      C1331   1.403       .  A
C1330      H1335   1.083       .  S
C1331      C1332   1.415       .  A
C1331      O1336   1.371       .  S
C1332      C1333   1.403       .  A
C1333      C1334   1.396       .  A
C1333      H1337   1.083       .  S
C1334      O1338   1.373       .  S
O1336      H1340   0.992       .  S
O1338      H1339   0.992       .  S
C1341      C1342   1.403       .  A
C1341      C1346   1.419       .  A
C1342      C1343   1.406       .  A
C1342      H1347   1.083       .  S
C1343      C1344   1.413       .  A
C1343      O1348   1.376       .  S
C1344      C1345   1.397       .  A
C1345      C1346   1.386       .  A
C1345      H1349   1.082       .  S
C1346      O1350   1.372       .  S
O1348      H1352   0.992       .  S
O1350      H1351   0.992       .  S
C1353      C1354   1.396       .  A
C1353      C1358   1.413       .  A
C1355      O1360   1.370       .  S
C1356      C1357   1.407       .  A
C1357      C1358   1.403       .  A
C1357      H1361   1.083       .  S
C1358      O1362   1.370       .  S
O1362      H1363   0.991       .  S
C1365      C1366   1.411   1_545  A
C1366      C1367   1.404       .  A
C1366      H1371   1.083       .  S
C1367      C1368   1.410   1_556  A
C1369      C1370   1.388       .  A
C1369      H1373   1.083   1_556  S
C1370      O1374   1.373       .  S
O1372      H1376   0.992       .  S
O1374      H1375   0.992       .  S
