geometry optimzed in LAMMPS
_audit_creation_date              2020-12-01 
_audit_creation_method            'lammps2cif' 
_symmetry_space_group_name_H-M    'P1' 
_symmetry_Int_Tables_number       1 
_symmetry_cell_setting            triclinic 
loop_ 
_symmetry_equiv_pos_as_xyz 
  x,y,z 
_cell_length_a                    36.12287924 
_cell_length_b                    35.770285906864856 
_cell_length_c                    43.78989140017746 
_cell_angle_alpha                 90.501785582597 
_cell_angle_beta                  89.99265468638141 
_cell_angle_gamma                 120.3187627666758 
loop_ 
_atom_site_label 
_atom_site_type_symbol 
_atom_site_fract_x 
_atom_site_fract_y 
_atom_site_fract_z 
_atom_site_charge 
Fe1        Fe  0.37349631  0.22790427  0.37364647     1.65800
Fe2        Fe  0.27254532  0.14287674  0.37287833     1.73200
Fe3        Fe  0.35687480  0.12657406  0.37751511     1.54400
O4          O  0.40749552  0.16341576  0.34869526    -0.80000
O5          O  0.26325017  0.10930330  0.41361368    -0.78300
O6          O  0.40502258  0.22215578  0.33546135    -0.82500
O7          O  0.41793557  0.22690505  0.40249902    -0.77300
O8          O  0.32192369  0.09099615  0.33923725    -0.79100
O9          O  0.27611821  0.19396859  0.39760131    -0.81800
C10         C  0.41749063  0.19917859  0.42057122     0.98900
C11         C  0.41845173  0.19569985  0.33134937     1.06400
O12         O  0.33431228  0.16560002  0.37453136    -1.10800
O13         O  0.27819782  0.17474014  0.33189701    -0.73300
O14         O  0.33503932  0.23828517  0.34440117    -0.76700
O15         O  0.39295987  0.15875868  0.41622645    -0.77400
C16         C  0.30427617  0.21446753  0.32641073     0.97800
O17         O  0.34393572  0.23606063  0.41214073    -0.75400
O18         O  0.26023800  0.08885174  0.34800661    -0.80600
C19         C  0.27916876  0.08609835  0.42145443     1.00500
C20         C  0.28231832  0.07599002  0.33362386     1.06400
O21         O  0.30920983  0.08545614  0.40679408    -0.76200
C22         C  0.30401866  0.22145496  0.41593056     1.04700
C23         C  0.43673742  0.46623220  0.51623893     0.81900
N24         N  0.49541733  0.06705052  0.49141376    -0.76400
C25         C  0.06107278  0.05483206  0.49039169     0.84400
N26         N  0.02500870  0.48883476  0.00832311    -0.76300
C27         C  0.47104777  0.42590793  0.01149349     0.84500
N28         N  0.43875437  0.42964867  0.51245676    -0.78000
C29         C  0.29693477  0.03037125  0.48503943     0.81900
N30         N  0.33415662  0.02992650  0.48174094    -0.76400
C31         C  0.34811190  0.49187973  0.49910053     0.84400
N32         N  0.32244886  0.48365785  0.02627717    -0.76300
C33         C  0.28713406  0.48795545  0.02633231     0.84500
N34         N  0.27716528  0.50059292  0.49899091    -0.78000
C35         C  0.20600136  0.21727564  0.01963159     0.81900
N36         N  0.17047271  0.17732881  0.01669808    -0.76400
C37         C  0.16224964  0.15410042  0.99045688     0.84400
N38         N  0.18288386  0.17712360  0.47678616    -0.76300
C39         C  0.22265900  0.21275649  0.47492801     0.84500
N40         N  0.23397477  0.23441971  0.99589536    -0.78000
C41         C  0.02398955  0.30144143  0.02788076     0.81900
N42         N  0.49082103  0.25496539  0.00369642    -0.76400
C43         C  0.48714886  0.28020553  0.48245002     0.84400
N44         N  0.49048158  0.31944248  0.48680448    -0.76300
C45         C  0.49517768  0.33288847  0.01282510     0.84500
N46         N  0.02764894  0.34106533  0.03096140    -0.78000
Fe47       Fe  0.13782031  0.35780233  0.12872191     1.65800
Fe48       Fe  0.15055195  0.27153226  0.12659041     1.73200
Fe49       Fe  0.23674008  0.37116288  0.12673501     1.54400
O50         O  0.23420158  0.41725086  0.10044225    -0.80000
O51         O  0.18289258  0.27425221  0.16682209    -0.78300
O52         O  0.16564795  0.39241481  0.08882035    -0.82500
O53         O  0.17941300  0.40979994  0.15569052    -0.77300
O54         O  0.23987322  0.34133308  0.08619815    -0.79100
O55         O  0.09797623  0.26003431  0.15209890    -0.81800
C56         C  0.21262403  0.41976766  0.17163410     0.98900
C57         C  0.20547808  0.41699809  0.08357289     1.06400
O58         O  0.17515702  0.33372272  0.12786718    -1.10800
O59         O  0.11832574  0.26827834  0.08593126    -0.73300
O60         O  0.09137735  0.30864522  0.10217080    -0.76700
O61         O  0.23617838  0.40334063  0.16652579    -0.77400
C62         C  0.09327931  0.28337396  0.08250447     0.97800
O63         O  0.10785159  0.32350120  0.16822646    -0.75400
O64         O  0.19966672  0.27373136  0.10145212    -0.80600
C65         C  0.22294486  0.29921812  0.17162370     1.00500
C66         C  0.22421670  0.30087258  0.08195611     1.06400
O67         O  0.24660568  0.32971740  0.15351542    -0.76200
C68         C  0.08999311  0.28254200  0.17064021     1.04700
C69         C  0.47618719  0.49005249  0.23766443     0.81900
N70         N  0.47475752  0.98705809  0.22609105    -0.76400
C71         C  0.98776419  0.01429929  0.22744260     0.84400
N72         N  0.02169291  0.00821433  0.23064532    -0.76300
C73         C  0.01563431  0.96764926  0.23285404     0.84500
N74         N  0.00324099  0.46621701  0.24268085    -0.78000
C75         C  0.19716720  0.49429710  0.22687544     0.81900
N76         N  0.16326879  0.50089863  0.22795174    -0.76400
C77         C  0.12680714  0.98660960  0.25415155     0.84400
N78         N  0.15229581  0.00151837  0.27915658    -0.76300
C79         C  0.19064061  0.00302136  0.27999465     0.84500
N80         N  0.20418942  0.98999325  0.25510554    -0.78000
C81         C  0.47967192  0.16499319  0.27399854     0.81900
N82         N  0.00243356  0.20111269  0.24644316    -0.76400
C83         C  0.01316164  0.18666657  0.22085300     0.84400
N84         N  0.00218949  0.14434904  0.21842625    -0.76300
C85         C  0.98021678  0.11606624  0.24093615     0.84500
N86         N  0.47818526  0.12629373  0.27238139    -0.78000
C87         C  0.33970868  0.30184440  0.26550059     0.81900
N88         N  0.30612632  0.29781008  0.24850172    -0.76400
C89         C  0.31211340  0.33164679  0.23072049     0.84400
N90         N  0.35085339  0.36886662  0.23053786    -0.76300
C91         C  0.38417471  0.37256802  0.24705652     0.84500
N92         N  0.37845847  0.33883289  0.26413234    -0.78000
C93         C  0.99549118  0.05883736  0.22565671    -0.14700
C94         C  0.96926059  0.07039371  0.23898718    -0.29900
H95         H  0.02563181  0.08355919  0.21596607     0.14300
H96         H  0.46328987  0.04585164  0.25781894     0.14900
C97         C  0.05290681  0.96151504  0.23605248    -0.14700
C98         C  0.08736112  0.98921395  0.25273293    -0.29900
H99         H  0.07744852  0.46873704  0.22953432     0.14300
H100        H  0.08661126  0.01472120  0.26591006     0.14900
C101        C  0.43283699  0.45121495  0.23889223    -0.14700
C102        C  0.42693658  0.41203779  0.24594734    -0.29900
H103        H  0.40529820  0.45507733  0.23475086     0.14300
H104        H  0.45436065  0.40890413  0.25218482     0.14900
C105        C  0.05924417  0.25902705  0.19567557    -0.14700
C106        C  0.03855044  0.21531404  0.19573212    -0.29900
H107        H  0.05569634  0.27692998  0.21448462     0.14300
H108        H  0.04260447  0.19839599  0.17645095     0.14900
C109        C  0.20095567  0.47244176  0.19939070    -0.14700
C110        C  0.22229740  0.45061382  0.19747074    -0.29900
H111        H  0.18040854  0.47021930  0.18048341     0.14300
H112        H  0.24325956  0.45229761  0.21586958     0.14900
C113        C  0.24448981  0.29408691  0.19881465    -0.14700
C114        C  0.27910181  0.32989689  0.21003717    -0.29900
H115        H  0.23430197  0.26223778  0.20796040     0.14300
H116        H  0.28705076  0.36107870  0.20053615     0.14900
C117        C  0.03552183  0.28459079  0.05452919    -0.14700
C118        C  0.06678452  0.27443046  0.05444663    -0.29900
H119        H  0.02583999  0.29184553  0.07625009     0.14300
H120        H  0.07789355  0.26792272  0.03310216     0.14900
C121        C  0.21199428  0.24009996  0.04900179    -0.14700
C122        C  0.23237141  0.28345612  0.05332589    -0.29900
H123        H  0.19327629  0.21903515  0.06754921     0.14300
H124        H  0.25013198  0.30527532  0.03487257     0.14900
C125        C  0.22043599  0.44465400  0.05602154    -0.14700
C126        C  0.26186305  0.47626426  0.05456995    -0.29900
H127        H  0.20056713  0.43402624  0.03558189     0.14300
H128        H  0.28104351  0.48541380  0.07536159     0.14900
C129        C  0.10490409  0.09293212  0.48936424    -0.14700
C130        C  0.12348934  0.11063294  0.98722305    -0.29900
H131        H  0.08491109  0.12447840  0.01566075     0.14300
H132        H  0.09268735  0.13194153  0.51919964     0.14900
C133        C  0.47039014  0.38494677  0.00508069    -0.14700
C134        C  0.49804406  0.37517203  0.01810811    -0.29900
H135        H  0.45221109  0.36632994  0.49199717     0.14300
H136        H  0.03997994  0.42260081  0.02962033     0.14900
C137        C  0.39488030  0.46399662  0.51631038    -0.15700
C138        C  0.38887685  0.49185554  0.49972351    -0.29900
H139        H  0.36358483  0.43517215  0.02526889     0.14300
H140        H  0.37683098  0.96595016  0.49530132     0.14900
C141        C  0.44641183  0.20055652  0.30482260    -0.14700
C142        C  0.46149132  0.17307113  0.30178823    -0.29900
H143        H  0.45100133  0.22314586  0.28679503     0.14300
H144        H  0.45598351  0.15063621  0.32017451     0.14900
C145        C  0.29455551  0.06580292  0.46997014    -0.14700
C146        C  0.26443059  0.05903192  0.44909398    -0.29900
H147        H  0.32499678  0.09613142  0.46876253     0.14300
H148        H  0.23455301  0.02825110  0.44795891     0.14900
C149        C  0.47016153  0.25867880  0.45273526    -0.14700
C150        C  0.44503837  0.21560638  0.44835220    -0.29900
H151        H  0.47312651  0.28040370  0.43447840     0.14300
H152        H  0.44057156  0.19330318  0.46656632     0.14900
C153        C  0.26025754  0.04383994  0.30864540    -0.14700
C154        C  0.21706045  0.02222102  0.30759803    -0.29900
H155        H  0.27877254  0.04217150  0.28968821     0.14300
H156        H  0.19966365  0.02455614  0.32710321     0.14900
C157        C  0.30018827  0.23543625  0.29848136    -0.14700
C158        C  0.33631787  0.26897569  0.28718282    -0.29900
H159        H  0.26891501  0.22577577  0.28880890     0.14300
H160        H  0.36684303  0.27613465  0.29714395     0.14900
C161        C  0.28812310  0.23405002  0.44327563    -0.14700
C162        C  0.24571062  0.21905953  0.44592296    -0.29900
H163        H  0.30949179  0.24939968  0.46262992     0.14300
H164        H  0.22495809  0.20296406  0.42637956     0.14900
Fe165      Fe  0.37636547  0.23015995  0.86984017     1.65800
Fe166      Fe  0.27382051  0.15107998  0.86879376     1.73200
Fe167      Fe  0.35172481  0.12613731  0.87130234     1.54400
O168        O  0.40332040  0.16165181  0.84264917    -0.80000
O169        O  0.26597558  0.12018203  0.91041279    -0.78300
O170        O  0.40534750  0.22338542  0.83084276    -0.82500
O171        O  0.41950760  0.22398056  0.89691903    -0.77300
O172        O  0.31591103  0.09423218  0.83249309    -0.79100
O173        O  0.28265827  0.20540770  0.89210822    -0.81800
C174        C  0.41475355  0.19512861  0.91569912     0.98900
C175        C  0.41533777  0.19451153  0.82557407     1.06400
O176        O  0.33414397  0.16894944  0.86926346    -1.10800
O177        O  0.28104233  0.18265522  0.82764883    -0.73300
O178        O  0.33896720  0.24452497  0.84199833    -0.76700
O179        O  0.38782181  0.15526190  0.91087812    -0.77400
C180        C  0.30843148  0.22240683  0.82323615     0.97800
O181        O  0.34912210  0.23810859  0.90974400    -0.75400
O182        O  0.25633982  0.09447033  0.84481332    -0.80600
C183        C  0.27715841  0.09262075  0.91689193     1.00500
C184        C  0.27626801  0.08077570  0.82850720     1.06400
O185        O  0.30137835  0.08562459  0.89956276    -0.76200
C186        C  0.30994033  0.22721662  0.91271367     1.04700
C187        C  0.43289875  0.46306826  0.01622101     0.81900
N188        N  0.48522030  0.05950713  0.00288185    -0.76400
C189        C  0.04724930  0.05727807  0.99842557     0.84400
N190        N  0.02811048  0.49132975  0.51594921    -0.76300
C191        C  0.47730109  0.43163558  0.51141629     0.84500
N192        N  0.43335333  0.42576346  0.01158014    -0.78000
C193        C  0.28527641  0.02634696  0.97747962     0.81900
N194        N  0.32771558  0.03937268  0.97630291    -0.76400
C195        C  0.34902044  0.49629862  0.00196074     0.84400
N196        N  0.32229345  0.48037170  0.52382893    -0.76300
C197        C  0.28663785  0.48411613  0.52381936     0.84500
N198        N  0.27849994  0.50576815  0.00184418    -0.78000
C199        C  0.21556864  0.23191943  0.52528554     0.81900
N200        N  0.17593457  0.19599242  0.52669546    -0.76400
C201        C  0.15944619  0.16843715  0.50259814     0.84400
N202        N  0.19007576  0.17110225  0.96699016    -0.76300
C203        C  0.22584053  0.21093344  0.96949767     0.84500
N204        N  0.23938293  0.24046575  0.49933079    -0.78000
C205        C  0.02635881  0.30451301  0.52855668     0.81900
N206        N  0.49836373  0.26216883  0.50537836    -0.76400
C207        C  0.47926314  0.27297337  0.98091931     0.84400
N208        N  0.48167187  0.31178494  0.98567675    -0.76300
C209        C  0.50472180  0.34110319  0.51367509     0.84500
N210        N  0.03195081  0.34485384  0.53191155    -0.78000
Fe211      Fe  0.13647184  0.36426283  0.62932913     1.65800
Fe212      Fe  0.15439521  0.28106480  0.62878118     1.73200
Fe213      Fe  0.23684012  0.38279921  0.62886947     1.54400
O214        O  0.23106345  0.42836871  0.60439761    -0.80000
O215        O  0.18892680  0.28575294  0.66828346    -0.78300
O216        O  0.16380829  0.39663180  0.58843428    -0.82500
O217        O  0.17715930  0.41810427  0.65557763    -0.77300
O218        O  0.24165211  0.35509816  0.58787293    -0.79100
O219        O  0.10234056  0.26824505  0.65577614    -0.81800
C220        C  0.20962912  0.42861209  0.67262876     0.98900
C221        C  0.20357156  0.42298864  0.58429811     1.06400
O222        O  0.17581787  0.34258846  0.62983925    -1.10800
O223        O  0.12019465  0.27483159  0.58865279    -0.73300
O224        O  0.09067089  0.31322118  0.60373305    -0.76700
O225        O  0.23351664  0.41223204  0.66905995    -0.77400
C226        C  0.09390993  0.28817979  0.58462632     0.97800
O227        O  0.10706791  0.33083144  0.66923519    -0.75400
O228        O  0.20387934  0.28632699  0.60201756    -0.80600
C229        C  0.22891519  0.31186982  0.67226341     1.00500
C230        C  0.22854311  0.31510173  0.58329845     1.06400
O231        O  0.25062711  0.34306693  0.65421285    -0.76200
C232        C  0.09169123  0.29028839  0.67285907     1.04700
C233        C  0.48808814  0.49909305  0.73981910     0.81900
N234        N  0.46565218  0.97834443  0.73441414    -0.76400
C235        C  0.96251493  0.00388678  0.74682594     0.84400
N236        N  0.99920478  0.00207523  0.74582143    -0.76300
C237        C  0.99746469  0.96336357  0.74247444     0.84500
N238        N  0.00437660  0.48042738  0.73978640    -0.78000
C239        C  0.19563660  0.50847291  0.72315307     0.81900
N240        N  0.16363470  0.51790877  0.72230605    -0.76400
C241        C  0.11310568  0.98868655  0.75511367     0.84400
N242        N  0.14157365  0.00663194  0.77826718    -0.76300
C243        C  0.17979310  0.00797006  0.77757922     0.84500
N244        N  0.19013573  0.99133213  0.75294236    -0.78000
C245        C  0.46258284  0.15594557  0.76312124     0.81900
N246        N  0.00355537  0.20362500  0.74809320    -0.76400
C247        C  0.01823152  0.19338219  0.72241169     0.84400
N248        N  0.01516309  0.15403976  0.71985554    -0.76300
C249        C  0.99754146  0.12447900  0.74223742     0.84500
N250        N  0.45767588  0.11582705  0.76077789    -0.78000
C251        C  0.34735554  0.31228481  0.76387872     0.81900
N252        N  0.31449276  0.30922360  0.74653191    -0.76400
C253        C  0.32179792  0.34319297  0.72840592     0.84400
N254        N  0.36117192  0.37969388  0.72826316    -0.76300
C255        C  0.39373274  0.38236447  0.74522281     0.84500
N256        N  0.38665714  0.34846797  0.76261100    -0.78000
C257        C  0.96411534  0.04575346  0.75079317    -0.14700
C258        C  0.99596912  0.08255883  0.73903136    -0.29900
H259        H  0.93746892  0.04595058  0.76215538     0.14300
H260        H  0.44744304  0.03779088  0.74797890     0.14900
C261        C  0.03720476  0.96120655  0.74107726    -0.14700
C262        C  0.07296004  0.99007117  0.75600215    -0.29900
H263        H  0.07872209  0.48583436  0.72428933     0.14300
H264        H  0.07237035  0.01471365  0.77035323     0.14900
C265        C  0.44427657  0.46095112  0.73886819    -0.14700
C266        C  0.43702462  0.42099716  0.74475421    -0.29900
H267        H  0.41748439  0.46597633  0.73456772     0.14300
H268        H  0.46363291  0.41663658  0.75124362     0.14900
C269        C  0.06112915  0.26667624  0.69799646    -0.14700
C270        C  0.03832222  0.22305058  0.69660130    -0.29900
H271        H  0.06084814  0.28404488  0.71837796     0.14300
H272        H  0.03935217  0.20703496  0.67565629     0.14900
C273        C  0.19834316  0.48354188  0.69722101    -0.14700
C274        C  0.21864495  0.46066648  0.69741500    -0.29900
H275        H  0.17842641  0.48052987  0.67767714     0.14300
H276        H  0.23909707  0.46326872  0.71645667     0.14900
C277        C  0.25254487  0.30702305  0.69825515    -0.14700
C278        C  0.28928549  0.34226645  0.70761135    -0.29900
H279        H  0.24133847  0.27560725  0.70850971     0.14300
H280        H  0.29856796  0.37327552  0.69723328     0.14900
C281        C  0.03546755  0.28588276  0.55529465    -0.14700
C282        C  0.06802669  0.27777414  0.55619268    -0.29900
H283        H  0.02387377  0.29164903  0.57672363     0.14300
H284        H  0.08102382  0.27284704  0.53516803     0.14900
C285        C  0.23159524  0.25892919  0.55309172    -0.14700
C286        C  0.23921363  0.29987928  0.55472202    -0.29900
H287        H  0.22481657  0.24068358  0.57410449     0.14300
H288        H  0.24499801  0.31861991  0.53407285     0.14900
C289        C  0.22002158  0.44648806  0.55506659    -0.14700
C290        C  0.26251968  0.47446056  0.55248911    -0.29900
H291        H  0.19952489  0.43563003  0.53494549     0.14300
H292        H  0.28257651  0.48368057  0.57282927     0.14900
C293        C  0.08676142  0.10009935  0.00182787    -0.14700
C294        C  0.11584617  0.13009388  0.50436660    -0.29900
H295        H  0.12915039  0.08987311  0.47671507     0.14300
H296        H  0.12447917  0.08768122  0.97130542     0.14900
C297        C  0.47815133  0.39138276  0.50565052    -0.14700
C298        C  0.50693017  0.38313151  0.51861777    -0.29900
H299        H  0.44447908  0.36085044  0.99089054     0.14300
H300        H  0.05002987  0.42922916  0.52869635     0.14900
C301        C  0.39196138  0.46280055  0.01586751    -0.15700
C302        C  0.38902186  0.49484116  0.00254581    -0.29900
H303        H  0.36833040  0.43806908  0.52861310     0.14300
H304        H  0.41237885  0.06520102  0.97964698     0.14900
C305        C  0.44146698  0.19778268  0.79851372    -0.14700
C306        C  0.43416000  0.16080553  0.78489298    -0.29900
H307        H  0.46696908  0.22909006  0.79090088     0.14300
H308        H  0.40741634  0.13042355  0.79292912     0.14900
C309        C  0.26596585  0.03316033  0.95011569    -0.14700
C310        C  0.26504896  0.06998691  0.94655512    -0.29900
H311        H  0.26698466  0.01606555  0.92977791     0.14300
H312        H  0.26489783  0.08819417  0.96650316     0.14900
C313        C  0.46449195  0.25270274  0.95050729    -0.14700
C314        C  0.43991268  0.20981575  0.94471607    -0.29900
H315        H  0.46879119  0.27540695  0.93262275     0.14300
H316        H  0.43366500  0.18651062  0.96258483     0.14900
C317        C  0.25170823  0.04908583  0.80372883    -0.14700
C318        C  0.20861881  0.02936005  0.80382251    -0.29900
H319        H  0.26853061  0.04533059  0.78446365     0.14300
H320        H  0.19299037  0.03381965  0.82360259     0.14900
C321        C  0.30592265  0.24527597  0.79588881    -0.14700
C322        C  0.34264984  0.27924648  0.78583354    -0.29900
H323        H  0.27527269  0.23598909  0.78527972     0.14300
H324        H  0.37259885  0.28603568  0.79658894     0.14900
C325        C  0.29387773  0.23672058  0.94127706    -0.14700
C326        C  0.25293684  0.22787010  0.94226270    -0.29900
H327        H  0.31203392  0.24227141  0.96227177     0.14300
H328        H  0.23511233  0.22113346  0.92096999     0.14900
Fe329      Fe  0.35556515  0.73752844  0.37718080     1.65800
Fe330      Fe  0.26962751  0.63826416  0.37749002     1.73200
Fe331      Fe  0.36822591  0.65163560  0.38015592     1.54400
O332        O  0.41487138  0.70007524  0.35360930    -0.80000
O333        O  0.27023336  0.60890130  0.41803079    -0.78300
O334        O  0.38775004  0.73981095  0.33679148    -0.82500
O335        O  0.40859688  0.75012924  0.40273249    -0.77300
O336        O  0.34022088  0.61652787  0.33991709    -0.79100
O337        O  0.25964803  0.68207315  0.40236171    -0.81800
C338        C  0.41530168  0.72824039  0.42236372     0.98900
C339        C  0.41316734  0.72501995  0.33383544     1.06400
O340        O  0.33115590  0.67564389  0.37883172    -1.10800
O341        O  0.26754515  0.66520964  0.33603529    -0.73300
O342        O  0.30540706  0.73321888  0.35178691    -0.76700
O343        O  0.39782669  0.68720032  0.41995197    -0.77400
C344        C  0.28311727  0.70538920  0.33145511     0.97800
O345        O  0.32373858  0.73541151  0.41743818    -0.75400
O346        O  0.27217132  0.59005253  0.35309338    -0.80600
C347        C  0.29266261  0.59119920  0.42273609     1.00500
C348        C  0.30028767  0.59143639  0.33499498     1.06400
O349        O  0.32579851  0.60026837  0.40696700    -0.76200
C350        C  0.28340265  0.71190399  0.42133669     1.04700
C351        C  0.45704540  0.03031828  0.48688836     0.81900
N352        N  0.47352673  0.50505336  0.51892946    -0.76400
C353        C  0.02587848  0.52758855  0.52205723     0.84400
N354        N  0.04911947  0.02090423  0.99180974    -0.76300
C355        C  0.48550572  0.98420069  0.99398208     0.84500
N356        N  0.45558971  0.99178484  0.48363461    -0.78000
C357        C  0.30329553  0.51218842  0.47410339     0.81900
N358        N  0.33849841  0.50787001  0.47447820    -0.76400
C359        C  0.33881851  0.99809229  0.49425266     0.84400
N360        N  0.32306805  0.00784343  0.02361967    -0.76300
C361        C  0.28055422  0.99430514  0.02518917     0.84500
N362        N  0.26440609  0.99943365  0.50224694    -0.78000
C363        C  0.17429099  0.69426098  0.02416733     0.81900
N364        N  0.14043908  0.65290317  0.02416994    -0.76400
C365        C  0.13122770  0.62685040  0.99926968     0.84400
N366        N  0.16261426  0.63962909  0.48285124    -0.76300
C367        C  0.19614588  0.68082720  0.48100112     0.84500
N368        N  0.19943007  0.70983960  0.99887483    -0.78000
C369        C  0.02858617  0.82828099  0.02498914     0.81900
N370        N  0.50169533  0.81182037  0.99889284    -0.76400
C371        C  0.48359769  0.82480765  0.47633325     0.84400
N372        N  0.48923932  0.86537270  0.47553265    -0.76300
C373        C  0.51192873  0.89305770  0.99757597     0.84500
N374        N  0.03957069  0.87054071  0.02305732    -0.78000
Fe375      Fe  0.13032124  0.86267557  0.12860260     1.65800
Fe376      Fe  0.12839229  0.76813798  0.12870534     1.73200
Fe377      Fe  0.22187913  0.86108453  0.12481258     1.54400
O378        O  0.22399711  0.90967206  0.09826075    -0.80000
O379        O  0.16304537  0.76736132  0.16691491    -0.78300
O380        O  0.15679840  0.89099451  0.08658649    -0.82500
O381        O  0.18016520  0.91503879  0.15034721    -0.77300
O382        O  0.21905367  0.82714452  0.08468934    -0.79100
O383        O  0.08299298  0.76730202  0.15793139    -0.81800
C384        C  0.20639359  0.91574885  0.16987617     0.98900
C385        C  0.19700959  0.91283891  0.08140711     1.06400
O386        O  0.16029864  0.83049230  0.12752896    -1.10800
O387        O  0.09461126  0.76755720  0.08951794    -0.73300
O388        O  0.07672023  0.81420327  0.10714487    -0.76700
O389        O  0.22535554  0.89430495  0.16547062    -0.77400
C390        C  0.07522040  0.78870909  0.08632771     0.97800
O391        O  0.10303679  0.83552487  0.17064318    -0.75400
O392        O  0.16995494  0.76149431  0.10032834    -0.80600
C393        C  0.20388555  0.78680542  0.16880376     1.00500
C394        C  0.19806584  0.78602029  0.08126465     1.06400
O395        O  0.22777773  0.81671217  0.15055549    -0.76200
C396        C  0.08238568  0.79501565  0.17609730     1.04700
C397        C  0.46987774  0.94693670  0.22414013     0.81900
N398        N  0.48114642  0.53024734  0.23986166    -0.76400
C399        C  0.01107797  0.54573566  0.24749015     0.84400
N400        N  0.04665354  0.54191429  0.24599506    -0.76300
C401        C  0.04285948  0.50216044  0.24366581     0.84500
N402        N  0.97521339  0.93287116  0.23149747    -0.78000
C403        C  0.17847760  0.97502818  0.22981876     0.81900
N404        N  0.14021581  0.97373043  0.22952072    -0.76400
C405        C  0.15613402  0.51890380  0.25292108     0.84400
N406        N  0.18321133  0.53029866  0.27703667    -0.76300
C407        C  0.21729366  0.52398626  0.27642330     0.84500
N408        N  0.22436204  0.50563753  0.25131232    -0.78000
C409        C  0.48611640  0.71119239  0.27807048     0.81900
N410        N  0.99244889  0.71809712  0.25283729    -0.76400
C411        C  0.02146744  0.71097907  0.23760584     0.84400
N412        N  0.01893139  0.67184899  0.23952937    -0.76300
C413        C  0.98757137  0.63922513  0.25570995     0.84500
N414        N  0.48651716  0.67338777  0.27838774    -0.78000
C415        C  0.31203154  0.78391263  0.26652650     0.81900
N416        N  0.28366101  0.77627458  0.24346950    -0.76400
C417        C  0.29809086  0.79914257  0.21710909     0.84400
N418        N  0.34036823  0.82962365  0.21429067    -0.76300
C419        C  0.36851110  0.83717181  0.23727898     0.84500
N420        N  0.35403320  0.81433112  0.26329481    -0.78000
C421        C  0.01584728  0.58935575  0.24856677    -0.14700
C422        C  0.98347606  0.59590644  0.25635854    -0.29900
H423        H  0.04697420  0.61685015  0.24288411     0.14300
H424        H  0.47270757  0.59255010  0.26777901     0.14900
C425        C  0.08112823  0.49744119  0.24110877    -0.14700
C426        C  0.11883249  0.52537090  0.25438445    -0.29900
H427        H  0.05184623  0.93368741  0.22497379     0.14300
H428        H  0.12149195  0.55186275  0.26838591     0.14900
C429        C  0.42613254  0.90910597  0.22099738    -0.14700
C430        C  0.41404533  0.87171292  0.23539669    -0.29900
H431        H  0.40201208  0.91390842  0.20980632     0.14300
H432        H  0.43726601  0.86860388  0.24928759     0.14900
C433        C  0.05618278  0.77753590  0.20413797    -0.14700
C434        C  0.05419296  0.74220891  0.21652260    -0.29900
H435        H  0.03666658  0.79054499  0.21259691     0.14300
H436        H  0.07573622  0.73183439  0.20756235     0.14900
C437        C  0.19129064  0.96303068  0.20119293    -0.14700
C438        C  0.21207049  0.94065894  0.19861609    -0.29900
H439        H  0.17595470  0.96691878  0.18108440     0.14300
H440        H  0.22690140  0.93537659  0.21841125     0.14900
C441        C  0.22609822  0.77672256  0.19324336    -0.14700
C442        C  0.26921843  0.79477670  0.19179284    -0.29900
H443        H  0.20847754  0.75887249  0.21322757     0.14300
H444        H  0.28581148  0.81215695  0.17135063     0.14900
C445        C  0.03776558  0.81441476  0.05412734    -0.14700
C446        C  0.05246959  0.78669306  0.05747786    -0.29900
H447        H  0.03889281  0.83409737  0.07354717     0.14300
H448        H  0.05361206  0.76819491  0.03807280     0.14900
C449        C  0.18123589  0.72072018  0.05189782    -0.14700
C450        C  0.20406938  0.76446657  0.05399034    -0.29900
H451        H  0.16222042  0.70225862  0.07129173     0.14300
H452        H  0.22309283  0.78378213  0.03490365     0.14900
C453        C  0.21430223  0.94295657  0.05504918    -0.14700
C454        C  0.25721416  0.96850062  0.05209068    -0.29900
H455        H  0.19266078  0.94234194  0.03758335     0.14300
H456        H  0.27793769  0.96831661  0.07001146     0.14900
C457        C  0.06499792  0.57086088  0.52425286    -0.14700
C458        C  0.09471682  0.58166605  0.99885411    -0.29900
H459        H  0.05856633  0.59138565  0.03231918     0.14300
H460        H  0.10198549  0.55673988  0.49430654     0.14900
C461        C  0.48415441  0.94254805  0.98988268    -0.14700
C462        C  0.51661893  0.93659457  0.99806857    -0.29900
H463        H  0.46157353  0.92127600  0.47058874     0.14300
H464        H  0.06180906  0.95379631  0.01415305     0.14900
C465        C  0.41718034  0.03233238  0.48657682    -0.15700
C466        C  0.37876827  0.99679856  0.49116912    -0.29900
H467        H  0.38444906  0.99082616  0.02477248     0.14300
H468        H  0.41465238  0.51494889  0.48526117     0.14900
C469        C  0.44063374  0.73450261  0.30628057    -0.14700
C470        C  0.47045694  0.72232493  0.30581894    -0.29900
H471        H  0.43225220  0.74495484  0.28550150     0.14300
H472        H  0.47733837  0.71099013  0.32683455     0.14900
C473        C  0.29759993  0.53296267  0.44713966    -0.14700
C474        C  0.28142207  0.55956261  0.44768254    -0.29900
H475        H  0.31456658  0.53210571  0.42686245     0.14300
H476        H  0.26429694  0.56130343  0.46752952     0.14900
C477        C  0.46084162  0.79594118  0.45021089    -0.14700
C478        C  0.44384406  0.75255458  0.44864796    -0.29900
H479        H  0.45535967  0.81221579  0.43140835     0.14300
H480        H  0.44829091  0.73524666  0.46720542     0.14900
C481        C  0.28451358  0.56478016  0.30661268    -0.14700
C482        C  0.24279351  0.53390927  0.30462635    -0.29900
H483        H  0.30410565  0.57592802  0.28620420     0.14300
H484        H  0.22380700  0.52425698  0.32537910     0.14900
C485        C  0.27807802  0.72122060  0.30144572    -0.14700
C486        C  0.29846102  0.76415875  0.29663445    -0.29900
H487        H  0.26422267  0.69857738  0.28241056     0.14300
H488        H  0.31416380  0.78636659  0.31566651     0.14900
C489        C  0.26271889  0.71713613  0.44918830    -0.14700
C490        C  0.21979430  0.69287521  0.45196772    -0.29900
H491        H  0.28248170  0.73552265  0.46857691     0.14300
H492        H  0.20095994  0.67392534  0.43239519     0.14900
Fe493      Fe  0.35431541  0.73857355  0.87530690     1.65800
Fe494      Fe  0.26823158  0.63874851  0.87745134     1.73200
Fe495      Fe  0.36630499  0.65178325  0.87924730     1.54400
O496        O  0.41418214  0.69935128  0.85330380    -0.80000
O497        O  0.27082064  0.61318408  0.91926312    -0.78300
O498        O  0.39016832  0.74176292  0.83676440    -0.82500
O499        O  0.40405316  0.75012843  0.90455919    -0.77300
O500        O  0.33802516  0.61821031  0.83864161    -0.79100
O501        O  0.25673005  0.68290411  0.89957900    -0.81800
C502        C  0.41195874  0.72740804  0.92282905     0.98900
C503        C  0.41505132  0.72636798  0.83431125     1.06400
O504        O  0.32983202  0.67676823  0.87781572    -1.10800
O505        O  0.26412312  0.66283468  0.83548958    -0.73300
O506        O  0.30671783  0.73335057  0.84586531    -0.76700
O507        O  0.39638488  0.68678179  0.91888939    -0.77400
C508        C  0.27941474  0.70254829  0.82900791     0.97800
O509        O  0.31995107  0.73802168  0.91377792    -0.75400
O510        O  0.27177304  0.58944740  0.85549728    -0.80600
C511        C  0.29234119  0.59442574  0.92357340     1.00500
C512        C  0.29791034  0.59343543  0.83473407     1.06400
O513        O  0.32313131  0.60061819  0.90607456    -0.76200
C514        C  0.27970697  0.71434253  0.91749229     1.04700
C515        C  0.44774619  0.02085700  0.00350174     0.81900
N516        N  0.47039300  0.50072327  0.02077874    -0.76400
C517        C  0.02187297  0.52476317  0.01378188     0.84400
N518        N  0.05534151  0.01435137  0.48716761    -0.76300
C519        C  0.49198422  0.98967764  0.48510687     0.84500
N520        N  0.44826731  0.98358401  0.99919900    -0.78000
C521        C  0.30544480  0.51851561  0.97734919     0.81900
N522        N  0.34045831  0.51385710  0.97776388    -0.76400
C523        C  0.34685476  0.03028740  0.99929261     0.84400
N524        N  0.30643563  0.96718570  0.51070895    -0.76300
C525        C  0.26961388  0.96776767  0.51530627     0.84500
N526        N  0.26122794  0.00308167  0.00178591    -0.78000
C527        C  0.18057770  0.69500070  0.53057719     0.81900
N528        N  0.14716032  0.65354911  0.53186929    -0.76400
C529        C  0.13801752  0.62573368  0.50810652     0.84400
N530        N  0.15608086  0.64255999  0.97422701    -0.76300
C531        C  0.19001610  0.68365817  0.97379322     0.84500
N532        N  0.20536458  0.70901135  0.50494261    -0.78000
C533        C  0.01778918  0.81768906  0.52284629     0.81900
N534        N  0.49843648  0.81257221  0.50072004    -0.76400
C535        C  0.47741331  0.82074391  0.97961722     0.84400
N536        N  0.48240641  0.86102453  0.97950098    -0.76300
C537        C  0.50958038  0.89403938  0.49857837     0.84500
N538        N  0.03058543  0.86041731  0.52111421    -0.78000
Fe539      Fe  0.12182330  0.86177938  0.62640111     1.65800
Fe540      Fe  0.12204436  0.76817430  0.62872038     1.73200
Fe541      Fe  0.21495569  0.86294225  0.62639226     1.54400
O542        O  0.21632725  0.90881958  0.59699167    -0.80000
O543        O  0.15554180  0.76733484  0.66748812    -0.78300
O544        O  0.14886042  0.88902890  0.58454703    -0.82500
O545        O  0.16987316  0.91570032  0.64809496    -0.77300
O546        O  0.21623314  0.82833007  0.58780503    -0.79100
O547        O  0.07525735  0.76711499  0.65697349    -0.81800
C548        C  0.19498435  0.91734063  0.66888489     0.98900
C549        C  0.18894267  0.90962546  0.57901534     1.06400
O550        O  0.15313843  0.83074082  0.62724369    -1.10800
O551        O  0.08907699  0.76602385  0.58898095    -0.73300
O552        O  0.06929094  0.81217874  0.60446888    -0.76700
O553        O  0.21553095  0.89731658  0.66572314    -0.77400
C554        C  0.06837841  0.78556358  0.58479528     0.97800
O555        O  0.09415981  0.83551708  0.66823965    -0.75400
O556        O  0.16483522  0.76228108  0.60110918    -0.80600
C557        C  0.19605202  0.78890735  0.67165098     1.00500
C558        C  0.19562981  0.78731179  0.58388271     1.06400
O559        O  0.22066988  0.82088165  0.65503503    -0.76200
C560        C  0.07271325  0.79511353  0.67373858     1.04700
C561        C  0.45996168  0.93784975  0.73370310     0.81900
N562        N  0.49383716  0.53943775  0.74308476    -0.76400
C563        C  0.00776942  0.55792352  0.74348011     0.84400
N564        N  0.04441436  0.55644209  0.74000606    -0.76300
C565        C  0.04281402  0.51767629  0.73834768     0.84500
N566        N  0.95878046  0.92639766  0.73995226    -0.78000
C567        C  0.16129191  0.97306477  0.72946661     0.81900
N568        N  0.12315592  0.97205070  0.73077390    -0.76400
C569        C  0.15699423  0.53811889  0.74613661     0.84400
N570        N  0.18242337  0.54862384  0.77109988    -0.76300
C571        C  0.21457572  0.53945766  0.77239035     0.84500
N572        N  0.22118708  0.51893562  0.74844480    -0.78000
C573        C  0.49307950  0.71587359  0.78181798     0.81900
N574        N  0.98755141  0.72776847  0.75582567    -0.76400
C575        C  0.99886583  0.71253955  0.73092702     0.84400
N576        N  0.99647714  0.67347668  0.73197470    -0.76300
C577        C  0.98311275  0.64916662  0.75744371     0.84500
N578        N  0.49625477  0.67964252  0.78304836    -0.78000
C579        C  0.30417312  0.75708099  0.75517719     0.81900
N580        N  0.27418605  0.76223603  0.73977115    -0.76400
C581        C  0.28704048  0.79867512  0.72301249     0.84400
N582        N  0.32913156  0.82980576  0.72262798    -0.76300
C583        C  0.35894627  0.82487444  0.73792391     0.84500
N584        N  0.34631376  0.78818462  0.75388911    -0.78000
C585        C  0.00981667  0.60018677  0.74363565    -0.14700
C586        C  0.98105324  0.60691805  0.75843297    -0.29900
H587        H  0.03645829  0.62689037  0.73192127     0.14300
H588        H  0.48500463  0.59983251  0.77289150     0.14900
C589        C  0.08205431  0.51516329  0.73457131    -0.14700
C590        C  0.12004143  0.54501232  0.74640156    -0.29900
H591        H  0.03649135  0.93433768  0.72876490     0.14300
H592        H  0.12259844  0.57221525  0.75944339     0.14900
C593        C  0.41583364  0.90071336  0.73094284    -0.14700
C594        C  0.40445052  0.85996238  0.73855095    -0.29900
H595        H  0.39121775  0.90795917  0.72411183     0.14300
H596        H  0.42840915  0.85285110  0.74718226     0.14900
C597        C  0.04465415  0.77903800  0.70096783    -0.14700
C598        C  0.01480326  0.73676220  0.70237840    -0.29900
H599        H  0.05224504  0.79994745  0.72092306     0.14300
H600        H  0.00846696  0.71669852  0.68205444     0.14900
C601        C  0.16966204  0.95562768  0.70131760    -0.14700
C602        C  0.19809640  0.94201125  0.69734398    -0.29900
H603        H  0.14726731  0.95039555  0.68294404     0.14300
H604        H  0.21972673  0.94500685  0.71565494     0.14900
C605        C  0.21692993  0.77715608  0.69609729    -0.14700
C606        C  0.25760307  0.80638572  0.70431891    -0.29900
H607        H  0.20055753  0.74490852  0.70574581     0.14300
H608        H  0.27245277  0.83861201  0.69459563     0.14900
C609        C  0.02398800  0.80224932  0.55227056    -0.14700
C610        C  0.04492443  0.78032807  0.55577038    -0.29900
H611        H  0.01966014  0.81827368  0.57200467     0.14300
H612        H  0.05111065  0.76550713  0.53615610     0.14900
C613        C  0.18706447  0.72289787  0.55745928    -0.14700
C614        C  0.20530216  0.76647009  0.55784952    -0.29900
H615        H  0.17018960  0.70503955  0.57769827     0.14300
H616        H  0.22251569  0.78550317  0.53812764     0.14900
C617        C  0.20598489  0.93574358  0.55093881    -0.14700
C618        C  0.23950479  0.93599367  0.53736398    -0.29900
H619        H  0.19372496  0.95614808  0.54306316     0.14300
H620        H  0.24902429  0.91345335  0.54569283     0.14900
C621        C  0.06038917  0.56831549  0.01699369    -0.14700
C622        C  0.10104794  0.58097318  0.50890780    -0.29900
H623        H  0.06279615  0.59614724  0.53661845     0.14300
H624        H  0.09462571  0.55963066  0.98156195     0.14900
C625        C  0.48887046  0.94701495  0.48280462    -0.14700
C626        C  0.51562905  0.93805069  0.49807925    -0.29900
H627        H  0.45382728  0.91486237  0.98262490     0.14300
H628        H  0.06200408  0.94589475  0.50863834     0.14900
C629        C  0.40635935  0.01771490  0.01054450    -0.15700
C630        C  0.39210396  0.04116621  0.99628397    -0.29900
H631        H  0.41967194  0.06377573  0.48454473     0.14300
H632        H  0.41655964  0.52012066  0.99056698     0.14900
C633        C  0.44489104  0.73750120  0.80802675    -0.14700
C634        C  0.47489685  0.72561272  0.80880817    -0.29900
H635        H  0.43820758  0.74892785  0.78699708     0.14300
H636        H  0.48021106  0.71361580  0.83011802     0.14900
C637        C  0.29983980  0.53900040  0.95013974    -0.14700
C638        C  0.28266294  0.56474997  0.94971525    -0.29900
H639        H  0.31694313  0.53770648  0.93009113     0.14300
H640        H  0.26551005  0.56700828  0.96936036     0.14900
C641        C  0.44574461  0.78912976  0.95780999    -0.14700
C642        C  0.44065905  0.75050861  0.94925577    -0.29900
H643        H  0.42674704  0.80060681  0.94626910     0.14300
H644        H  0.45796664  0.73709772  0.96068783     0.14900
C645        C  0.28006188  0.57080582  0.80513961    -0.14700
C646        C  0.23716012  0.54734028  0.80167766    -0.29900
H647        H  0.30091674  0.57914915  0.78541788     0.14300
H648        H  0.21682182  0.54109216  0.82150439     0.14900
C649        C  0.26771724  0.71489706  0.80025425    -0.14700
C650        C  0.29229095  0.72056446  0.77580604    -0.29900
H651        H  0.25035839  0.73233989  0.80176504     0.14300
H652        H  0.31395202  0.70777055  0.77645249     0.14900
C653        C  0.25808055  0.72073687  0.94418588    -0.14700
C654        C  0.21495432  0.69764306  0.94545172    -0.29900
H655        H  0.27690532  0.73782223  0.96426570     0.14300
H656        H  0.19704303  0.68028751  0.92511055     0.14900
Fe657      Fe  0.87546702  0.22844841  0.37230636     1.65800
Fe658      Fe  0.78173991  0.13366149  0.37608868     1.73200
Fe659      Fe  0.87572606  0.13508076  0.37789708     1.54400
O660        O  0.92421613  0.17729917  0.34963734    -0.80000
O661        O  0.78121056  0.10466006  0.41740915    -0.78300
O662        O  0.90711171  0.22528793  0.33349951    -0.82500
O663        O  0.92451867  0.23630991  0.40090227    -0.77300
O664        O  0.84344362  0.09799125  0.33937534    -0.79100
O665        O  0.77816646  0.18138102  0.40056586    -0.81800
C666        C  0.92904599  0.21191847  0.41963676     0.98900
C667        C  0.92674061  0.20444966  0.33008088     1.06400
O668        O  0.84422312  0.16575954  0.37559458    -1.10800
O669        O  0.77880330  0.16084005  0.33473842    -0.73300
O670        O  0.83092878  0.22895393  0.34326553    -0.76700
O671        O  0.90927985  0.17093684  0.41631065    -0.77400
C672        C  0.80008516  0.20052696  0.32720790     0.97800
O673        O  0.84472809  0.23469196  0.41062393    -0.75400
O674        O  0.77719993  0.08174096  0.35165138    -0.80600
C675        C  0.80265416  0.08643975  0.42395581     1.00500
C676        C  0.80308914  0.07675075  0.33478677     1.06400
O677        O  0.83214726  0.08888317  0.40683076    -0.76200
C678        C  0.80459660  0.21496217  0.41564304     1.04700
C679        C  0.95031792  0.48517070  0.52300115     0.81900
N680        N  0.02627085  0.05991053  0.49304168    -0.76400
C681        C  0.53216584  0.06541062  0.49238985     0.84400
N682        N  0.50865398  0.46388703  0.01599573    -0.76300
C683        C  0.98877474  0.44935227  0.00487379     0.84500
N684        N  0.95282586  0.44928425  0.51693598    -0.78000
C685        C  0.83026066  0.03253879  0.48661307     0.81900
N686        N  0.86761818  0.03196879  0.48776537    -0.76400
C687        C  0.85681396  0.50488919  0.50982252     0.84400
N688        N  0.82012712  0.47244836  0.02234593    -0.76300
C689        C  0.78073996  0.46869325  0.02119729     0.84500
N690        N  0.77791101  0.49767133  0.50495177    -0.78000
C691        C  0.69387867  0.20567152  0.01671183     0.81900
N692        N  0.65381582  0.17070468  0.01325730    -0.76400
C693        C  0.64132016  0.14839248  0.98653085     0.84400
N694        N  0.67812928  0.16906642  0.46270297    -0.76300
C695        C  0.71680316  0.20587117  0.46577018     0.84500
N696        N  0.72236020  0.21834572  0.99308742    -0.78000
C697        C  0.50453822  0.27636687  0.03103976     0.81900
N698        N  0.00674156  0.27759138  0.00186024    -0.76400
C699        C  0.99710401  0.29934017  0.47957511     0.84400
N700        N  0.00288391  0.33973079  0.48339501    -0.76300
C701        C  0.01496808  0.35766008  0.00830055     0.84500
N702        N  0.50655541  0.31500974  0.03531736    -0.78000
Fe703      Fe  0.62920156  0.34675682  0.12631918     1.65800
Fe704      Fe  0.64056287  0.25828292  0.12650502     1.73200
Fe705      Fe  0.72815027  0.35850480  0.12541278     1.54400
O706        O  0.72610420  0.40157775  0.09601093    -0.80000
O707        O  0.67553848  0.26066863  0.16519369    -0.78300
O708        O  0.65798608  0.38226399  0.08674415    -0.82500
O709        O  0.67001329  0.39859693  0.15339730    -0.77300
O710        O  0.73240421  0.32624698  0.08665790    -0.79100
O711        O  0.59114789  0.24930524  0.15477250    -0.81800
C712        C  0.70431385  0.41057482  0.16839406     0.98900
C713        C  0.69776981  0.40365252  0.08022334     1.06400
O714        O  0.66605933  0.32129140  0.12629613    -1.10800
O715        O  0.60453826  0.25174247  0.08749351    -0.73300
O716        O  0.58274482  0.29823598  0.09921525    -0.76700
O717        O  0.72827595  0.39457363  0.16339099    -0.77400
C718        C  0.58082007  0.26792479  0.08269308     0.97800
O719        O  0.59850867  0.31354644  0.16598079    -0.75400
O720        O  0.68601526  0.25798873  0.09835966    -0.80600
C721        C  0.71506078  0.28657794  0.17098255     1.00500
C722        C  0.71446302  0.28586470  0.08099436     1.06400
O723        O  0.73800295  0.31987108  0.15494350    -0.76200
C724        C  0.58245022  0.27335661  0.17116442     1.04700
C725        C  0.96745964  0.46961665  0.24438872     0.81900
N726        N  0.94734762  0.97942605  0.22629238    -0.76400
C727        C  0.51428221  0.02257364  0.22975692     0.84400
N728        N  0.54928072  0.01786971  0.23120497    -0.76300
C729        C  0.54483982  0.97778441  0.22933339     0.84500
N730        N  0.51122126  0.48589255  0.23371615    -0.78000
C731        C  0.69321977  0.49217550  0.22002194     0.81900
N732        N  0.66391149  0.50541841  0.21893830    -0.76400
C733        C  0.65626954  0.99510483  0.24948185     0.84400
N734        N  0.68011867  0.00669251  0.27533465    -0.76300
C735        C  0.71757107  0.00642348  0.27669357     0.84500
N736        N  0.73177062  0.99455788  0.25153135    -0.78000
C737        C  0.98046464  0.17254901  0.26916333     0.81900
N738        N  0.49656071  0.19341822  0.25031590    -0.76400
C739        C  0.51182371  0.18220383  0.22537606     0.84400
N740        N  0.51010163  0.14339533  0.22442906    -0.76300
C741        C  0.49360156  0.11546434  0.24786471     0.84500
N742        N  0.96962974  0.13041852  0.26619695    -0.78000
C743        C  0.82930013  0.27872886  0.26280300     0.81900
N744        N  0.79657531  0.27681362  0.24585708    -0.76400
C745        C  0.80356611  0.31267199  0.23010919     0.84400
N746        N  0.84236723  0.34972092  0.23198181    -0.76300
C747        C  0.87478838  0.35142679  0.24854125     0.84500
N748        N  0.86815336  0.31570055  0.26346271    -0.78000
C749        C  0.51922728  0.06606195  0.23186658    -0.14700
C750        C  0.48997737  0.07255442  0.24614603    -0.29900
H751        H  0.54803638  0.09337036  0.22263091     0.14300
H752        H  0.94140014  0.04645520  0.25144778     0.14900
C753        C  0.58304429  0.97270514  0.23063843    -0.14700
C754        C  0.61722573  0.99868411  0.24822063    -0.29900
H755        H  0.58243555  0.48586944  0.21603870     0.14300
H756        H  0.61601838  0.02256979  0.26305245     0.14900
C757        C  0.92422234  0.43052696  0.24315412    -0.14700
C758        C  0.91762841  0.39095146  0.24972191    -0.29900
H759        H  0.89713603  0.43458089  0.23762290     0.14300
H760        H  0.94441251  0.38744344  0.25715240     0.14900
C761        C  0.55370346  0.25278472  0.19771437    -0.14700
C762        C  0.52924837  0.20931072  0.19807354    -0.29900
H763        H  0.55649167  0.27209491  0.21778954     0.14300
H764        H  0.52748746  0.19128935  0.17745778     0.14900
C765        C  0.69347561  0.46539414  0.19421622    -0.14700
C766        C  0.71497966  0.44358845  0.19296220    -0.29900
H767        H  0.67148384  0.46098225  0.17573791     0.14300
H768        H  0.73788892  0.44793060  0.21068059     0.14900
C769        C  0.73659215  0.27906940  0.19723011    -0.14700
C770        C  0.77183152  0.31342150  0.20929004    -0.29900
H771        H  0.72538550  0.24649268  0.20532887     0.14300
H772        H  0.78098881  0.34549350  0.20094614     0.14900
C773        C  0.51727622  0.25951836  0.05703099    -0.14700
C774        C  0.55137208  0.25390325  0.05601094    -0.29900
H775        H  0.50771037  0.26568051  0.07920069     0.14300
H776        H  0.56260328  0.24852169  0.03431178     0.14900
C777        C  0.70478906  0.22671509  0.04709238    -0.14700
C778        C  0.72383069  0.26978028  0.05216604    -0.29900
H779        H  0.68797452  0.20491845  0.06580420     0.14300
H780        H  0.73973224  0.29227150  0.03364647     0.14900
C781        C  0.71401478  0.43212334  0.05318299    -0.14700
C782        C  0.74587417  0.43168479  0.03740661    -0.29900
H783        H  0.70596108  0.45724140  0.04986381     0.14300
H784        H  0.75232469  0.40562361  0.04200483     0.14900
C785        C  0.57349059  0.10566339  0.49725713    -0.14700
C786        C  0.59892774  0.10847198  0.98342537    -0.29900
H787        H  0.56558880  0.12858608  0.01246689     0.14300
H788        H  0.60728133  0.08956827  0.46571212     0.14900
C789        C  0.99062393  0.40970220  0.99830105    -0.14700
C790        C  0.01778184  0.40023008  0.01260417    -0.29900
H791        H  0.96437449  0.38638824  0.49416149     0.14300
H792        H  0.52140140  0.39746336  0.03460967     0.14900
C793        C  0.90779092  0.48147394  0.52522823    -0.15700
C794        C  0.90014445  0.51060546  0.51198900    -0.29900
H795        H  0.87573294  0.44483532  0.01561234     0.14300
H796        H  0.90601950  0.96656902  0.50895435     0.14900
C797        C  0.95136662  0.20916306  0.30178302    -0.14700
C798        C  0.97078978  0.18566889  0.29855655    -0.29900
H799        H  0.94803716  0.22597778  0.28239307     0.14300
H800        H  0.97222983  0.16769623  0.31794948     0.14900
C801        C  0.82961520  0.06525253  0.46680512    -0.14700
C802        C  0.79492469  0.06147323  0.45237984    -0.29900
H803        H  0.86112536  0.09070201  0.45949108     0.14300
H804        H  0.76258719  0.03716353  0.45881299     0.14900
C805        C  0.97588932  0.27578146  0.45113697    -0.14700
C806        C  0.95727914  0.23263495  0.44666577    -0.29900
H807        H  0.97220440  0.29524506  0.43380509     0.14300
H808        H  0.95972310  0.21241313  0.46397740     0.14900
C809        C  0.78467397  0.04702611  0.30795235    -0.14700
C810        C  0.74177782  0.02119922  0.30568391    -0.29900
H811        H  0.80503293  0.05145559  0.28845226     0.14300
H812        H  0.72229281  0.01797374  0.32551202     0.14900
C813        C  0.79108512  0.21614276  0.29848352    -0.14700
C814        C  0.82527411  0.24273261  0.28144566    -0.29900
H815        H  0.75987228  0.21283968  0.29467616     0.14300
H816        H  0.85572445  0.24489775  0.28689112     0.14900
C817        C  0.78680440  0.22907647  0.44081047    -0.14700
C818        C  0.74541927  0.21834417  0.43918540    -0.29900
H819        H  0.80445904  0.24019705  0.46219312     0.14300
H820        H  0.72898261  0.20699511  0.41732332     0.14900
Fe821      Fe  0.87358153  0.22576983  0.87238131     1.65800
Fe822      Fe  0.77867516  0.13374843  0.87162014     1.73200
Fe823      Fe  0.87007103  0.13046076  0.87747143     1.54400
O824        O  0.91950387  0.17164729  0.84916964    -0.80000
O825        O  0.77429473  0.10475968  0.91343956    -0.78300
O826        O  0.90674739  0.22343639  0.83394394    -0.82500
O827        O  0.92166118  0.23165590  0.90079358    -0.77300
O828        O  0.83858730  0.09331704  0.83874438    -0.79100
O829        O  0.77551407  0.18286470  0.89441581    -0.81800
C830        C  0.92468271  0.20662134  0.91966407     0.98900
C831        C  0.92498938  0.20107414  0.83048432     1.06400
O832        O  0.84088983  0.16316100  0.87370979    -1.10800
O833        O  0.78119451  0.16211327  0.82963901    -0.73300
O834        O  0.83034337  0.22914489  0.84353444    -0.76700
O835        O  0.90343241  0.16567636  0.91630295    -0.77400
C836        C  0.80302588  0.20256050  0.82446825     0.97800
O837        O  0.84123114  0.22926586  0.91105982    -0.75400
O838        O  0.77287350  0.08049545  0.84864749    -0.80600
C839        C  0.79377879  0.08518497  0.92175808     1.00500
C840        C  0.79848660  0.07327820  0.83330578     1.06400
O841        O  0.82402591  0.08581883  0.90645377    -0.76200
C842        C  0.80065126  0.21113175  0.91364019     1.04700
C843        C  0.94637532  0.48169244  0.01213449     0.81900
N844        N  0.00847982  0.05407247  0.00318185    -0.76400
C845        C  0.52296623  0.06056766  0.99758798     0.84400
N846        N  0.51418608  0.47072660  0.51396053    -0.76300
C847        C  0.99148645  0.45205993  0.51344216     0.84500
N848        N  0.94973510  0.44617215  0.00650871    -0.78000
C849        C  0.82436132  0.05229559  0.99202170     0.81900
N850        N  0.86540351  0.06050459  0.99132181    -0.76400
C851        C  0.85463776  0.50670187  0.00968904     0.84400
N852        N  0.82863884  0.48876111  0.53318839    -0.76300
C853        C  0.78923313  0.48491989  0.53095993     0.84500
N854        N  0.77539424  0.49886679  0.00601981    -0.78000
C855        C  0.69952757  0.21297464  0.51657923     0.81900
N856        N  0.66105283  0.17596934  0.51297331    -0.76400
C857        C  0.65013037  0.15401203  0.48609464     0.84400
N858        N  0.66952037  0.16093643  0.96321673    -0.76300
C859        C  0.70979450  0.19569228  0.96611278     0.84500
N860        N  0.72794984  0.22814645  0.49291700    -0.78000
C861        C  0.51298740  0.28412508  0.53241649     0.81900
N862        N  0.00858689  0.28134774  0.50237758    -0.76400
C863        C  0.99391097  0.29423098  0.97895990     0.84400
N864        N  0.99815719  0.33404111  0.98239424    -0.76300
C865        C  0.02043113  0.36269775  0.50944617     0.84500
N866        N  0.51590524  0.32328145  0.53636356    -0.78000
Fe867      Fe  0.63346201  0.34878207  0.62926403     1.65800
Fe868      Fe  0.64612069  0.26142320  0.62828550     1.73200
Fe869      Fe  0.73246727  0.36177524  0.62829334     1.54400
O870        O  0.73057166  0.40801216  0.60222197    -0.80000
O871        O  0.68067364  0.26393729  0.66712929    -0.78300
O872        O  0.66270440  0.38422285  0.58957941    -0.82500
O873        O  0.67453452  0.40006890  0.65703888    -0.77300
O874        O  0.73606999  0.33229679  0.58781379    -0.79100
O875        O  0.59644505  0.25098974  0.65659490    -0.81800
C876        C  0.70796210  0.41046833  0.67285537     0.98900
C877        C  0.70276807  0.40869061  0.58498793     1.06400
O878        O  0.67057575  0.32397471  0.62905577    -1.10800
O879        O  0.61017714  0.25538041  0.58919082    -0.73300
O880        O  0.58747676  0.30079430  0.60197363    -0.76700
O881        O  0.73154616  0.39401312  0.66792500    -0.77400
C882        C  0.58613864  0.27135882  0.58482026     0.97800
O883        O  0.60158151  0.31420089  0.66837842    -0.75400
O884        O  0.69293714  0.26352576  0.60021639    -0.80600
C885        C  0.72044286  0.28937761  0.67212350     1.00500
C886        C  0.71933586  0.29200766  0.58207618     1.06400
O887        O  0.74342331  0.32125461  0.65496134    -0.76200
C888        C  0.58694494  0.27408493  0.67337271     1.04700
C889        C  0.96758655  0.48154580  0.74332410     0.81900
N890        N  0.92397693  0.96671560  0.74450725    -0.76400
C891        C  0.50551847  0.01363809  0.73689001     0.84400
N892        N  0.54004584  0.00820489  0.73854138    -0.76300
C893        C  0.53485312  0.96776561  0.73771886     0.84500
N894        N  0.52282597  0.49420096  0.73709297    -0.78000
C895        C  0.69907372  0.49214309  0.72588287     0.81900
N896        N  0.67164754  0.50767467  0.72512077    -0.76400
C897        C  0.64771820  0.98668114  0.75351422     0.84400
N898        N  0.67323791  0.99887570  0.77851667    -0.76300
C899        C  0.71115120  0.99950189  0.77825998     0.84500
N900        N  0.72417739  0.98810769  0.75228577    -0.78000
C901        C  0.98578473  0.17374974  0.77082904     0.81900
N902        N  0.49424203  0.18950615  0.74708021    -0.76400
C903        C  0.52093363  0.18203532  0.72920344     0.84400
N904        N  0.51632667  0.14188337  0.72816043    -0.76300
C905        C  0.48465035  0.10865469  0.74374533     0.84500
N906        N  0.98306226  0.13455738  0.76769828    -0.78000
C907        C  0.83734263  0.28879900  0.76410649     0.81900
N908        N  0.80375132  0.28508485  0.74731985    -0.76400
C909        C  0.80894084  0.32006692  0.73137791     0.84400
N910        N  0.84682437  0.35807563  0.73285974    -0.76300
C911        C  0.88017626  0.36162469  0.74923513     0.84500
N912        N  0.87536768  0.32677291  0.76445150    -0.78000
C913        C  0.51160062  0.05774818  0.73712080    -0.14700
C914        C  0.47898155  0.06482602  0.74255490    -0.29900
H915        H  0.54374950  0.08501097  0.73371148     0.14300
H916        H  0.02043726  0.08151890  0.72521833     0.14900
C917        C  0.57272740  0.96218693  0.73832130    -0.14700
C918        C  0.60847875  0.98979458  0.75385367    -0.29900
H919        H  0.59317393  0.49232522  0.72223942     0.14300
H920        H  0.60870039  0.01504390  0.76798439     0.14900
C921        C  0.92559851  0.44101257  0.74389109    -0.14700
C922        C  0.92188605  0.40244847  0.74993556    -0.29900
H923        H  0.89703653  0.44303209  0.73958447     0.14300
H924        H  0.95012359  0.40077747  0.75618849     0.14900
C925        C  0.55736710  0.25172597  0.69925048    -0.14700
C926        C  0.55490057  0.21522856  0.70989042    -0.29900
H927        H  0.53641809  0.26294871  0.70782127     0.14300
H928        H  0.57727424  0.20593526  0.70102244     0.14900
C929        C  0.69658742  0.46375709  0.70035827    -0.14700
C930        C  0.71856758  0.44259327  0.69797809    -0.29900
H931        H  0.67314761  0.45866778  0.68282289     0.14300
H932        H  0.74279346  0.44767261  0.71480775     0.14900
C933        C  0.74226910  0.28328315  0.69867872    -0.14700
C934        C  0.77607954  0.31883679  0.71086783    -0.29900
H935        H  0.73275694  0.25106969  0.70673752     0.14300
H936        H  0.78335068  0.35038444  0.70252569     0.14900
C937        C  0.52455183  0.26664004  0.55863602    -0.14700
C938        C  0.55714164  0.25855814  0.55792374    -0.29900
H939        H  0.51529426  0.27362845  0.58064178     0.14300
H940        H  0.56789685  0.25218453  0.53636788     0.14900
C941        C  0.70877362  0.23365837  0.54705387    -0.14700
C942        C  0.72799234  0.27662180  0.55264765    -0.29900
H943        H  0.69161169  0.21139031  0.56546169     0.14300
H944        H  0.74414945  0.29958013  0.53442112     0.14900
C945        C  0.71962780  0.43774658  0.55806252    -0.14700
C946        C  0.76154416  0.46876514  0.55811883    -0.29900
H947        H  0.70075884  0.42906445  0.53718080     0.14300
H948        H  0.77931091  0.47613386  0.57948930     0.14900
C949        C  0.56402718  0.10234876  0.99876454    -0.14700
C950        C  0.60901158  0.11311600  0.48236687    -0.29900
H951        H  0.57407999  0.13084775  0.51166647     0.14300
H952        H  0.59632766  0.08344168  0.96783358     0.14900
C953        C  0.99247374  0.41234383  0.50555442    -0.14700
C954        C  0.02392828  0.40528103  0.51457995    -0.29900
H955        H  0.96572130  0.38543597  0.98357190     0.14300
H956        H  0.53038089  0.40622867  0.53471644     0.14900
C957        C  0.90340388  0.47721427  0.01364862    -0.15700
C958        C  0.89761158  0.51127742  0.01060711    -0.29900
H959        H  0.88137045  0.45216704  0.53475784     0.14300
H960        H  0.94580672  0.07375595  0.99540052     0.14900
C961        C  0.95202974  0.20707096  0.80317439    -0.14700
C962        C  0.96946968  0.18168236  0.79958191    -0.29900
H963        H  0.95330767  0.22791107  0.78481560     0.14300
H964        H  0.96667599  0.16025461  0.81800951     0.14900
C965        C  0.81400741  0.07937987  0.97288100    -0.14700
C966        C  0.78370234  0.06224691  0.95102291    -0.29900
H967        H  0.83962500  0.11286387  0.97040012     0.14300
H968        H  0.75998623  0.02791263  0.95110963     0.14900
C969        C  0.97366055  0.27023703  0.95048090    -0.14700
C970        C  0.95282335  0.22678894  0.94684348    -0.29900
H971        H  0.97195588  0.28993293  0.93239167     0.14300
H972        H  0.95311025  0.20632472  0.96490768     0.14900
C973        C  0.77988202  0.04214390  0.80729594    -0.14700
C974        C  0.73714011  0.01490224  0.80641994    -0.29900
H975        H  0.79935955  0.04677213  0.78722643     0.14300
H976        H  0.71879002  0.01143384  0.82696777     0.14900
C977        C  0.79825440  0.22141924  0.79579089    -0.14700
C978        C  0.83433452  0.25442850  0.78403228    -0.29900
H979        H  0.76672156  0.21252445  0.78702573     0.14300
H980        H  0.86491533  0.26095193  0.79352458     0.14900
C981        C  0.78064319  0.22066687  0.94011586    -0.14700
C982        C  0.73809184  0.20588445  0.93934162    -0.29900
H983        H  0.79880912  0.23353975  0.96115415     0.14300
H984        H  0.72099930  0.19290145  0.91789386     0.14900
Fe985      Fe  0.84906614  0.72391223  0.37645647     1.65800
Fe986      Fe  0.76327901  0.62397216  0.37539454     1.73200
Fe987      Fe  0.86170498  0.63695686  0.37768297     1.54400
O988        O  0.90765297  0.68380843  0.35003603    -0.80000
O989        O  0.76474922  0.59678073  0.41673582    -0.78300
O990        O  0.88559063  0.72990755  0.33769333    -0.82500
O991        O  0.89937927  0.73544052  0.40476739    -0.77300
O992        O  0.83312114  0.60255616  0.33761240    -0.79100
O993        O  0.75146876  0.66741664  0.39839724    -0.81800
C994        C  0.90957852  0.71284764  0.42119979     0.98900
C995        C  0.90837225  0.71250392  0.33273064     1.06400
O996        O  0.82506360  0.66185706  0.37680725    -1.10800
O997        O  0.76063387  0.65029307  0.33395910    -0.73300
O998        O  0.80119159  0.71961002  0.34782678    -0.76700
O999        O  0.89355349  0.67228020  0.41686403    -0.77400
C1000       C  0.77510136  0.69039257  0.32936106     0.97800
O1001       O  0.81401271  0.72019119  0.41549097    -0.75400
O1002       O  0.76590906  0.57483777  0.35223106    -0.80600
C1003       C  0.78756384  0.57973880  0.42231836     1.00500
C1004       C  0.79328651  0.57793237  0.33280057     1.06400
O1005       O  0.81933750  0.58656847  0.40560863    -0.76200
C1006       C  0.77361308  0.69620087  0.41826355     1.04700
C1007       C  0.98599985  0.02478720  0.49262109     0.81900
N1008       N  0.98692646  0.52428854  0.52551177    -0.76400
C1009       C  0.51226791  0.50757130  0.51780633     0.84400
N1010       N  0.52293685  0.02275707  0.99326278    -0.76300
C1011       C  0.01228164  0.98179192  0.98954090     0.84500
N1012       N  0.98073208  0.98459219  0.48925630    -0.78000
C1013       C  0.80651978  0.51391425  0.48143782     0.81900
N1014       N  0.84552792  0.51740034  0.48420284    -0.76400
C1015       C  0.87000677  0.00040819  0.50286178     0.84400
N1016       N  0.84651434  0.00076400  0.02228204    -0.76300
C1017       C  0.80557207  0.99277410  0.02402344     0.84500
N1018       N  0.79485316  0.00158170  0.50144966    -0.78000
C1019       C  0.66138006  0.66909576  0.03066589     0.81900
N1020       N  0.62744710  0.62790228  0.03226427    -0.76400
C1021       C  0.62385652  0.59661481  0.01271087     0.84400
N1022       N  0.65026302  0.61868138  0.47896913    -0.76300
C1023       C  0.68332607  0.66007846  0.47666764     0.84500
N1024       N  0.69184067  0.67936553  0.00881813    -0.78000
C1025       C  0.53126511  0.84413828  0.01739925     0.81900
N1026       N  0.00636777  0.80017890  0.00171306    -0.76400
C1027       C  0.98765831  0.80672438  0.47361243     0.84400
N1028       N  0.00053683  0.84957598  0.47240495    -0.76300
C1029       C  0.02944043  0.88558376  0.99812094     0.84500
N1030       N  0.53636074  0.88443620  0.01622966    -0.78000
Fe1031     Fe  0.64132452  0.87233507  0.12236053     1.65800
Fe1032     Fe  0.61898471  0.76934933  0.12182513     1.73200
Fe1033     Fe  0.72121180  0.85003254  0.11898384     1.54400
O1034       O  0.73425913  0.90146729  0.09105438    -0.80000
O1035       O  0.64770460  0.76324254  0.16182497    -0.78300
O1036       O  0.67385429  0.90241448  0.08236550    -0.82500
O1037       O  0.69280872  0.91731711  0.14742553    -0.77300
O1038       O  0.71342363  0.81204971  0.08005641    -0.79100
O1039       O  0.57597413  0.77715560  0.14795173    -0.81800
C1040       C  0.71883916  0.91382586  0.16484630     0.98900
C1041       C  0.71298144  0.91502873  0.07637081     1.06400
O1042       O  0.66071791  0.83071072  0.12031653    -1.10800
O1043       O  0.59005712  0.77461515  0.08202336    -0.73300
O1044       O  0.58718811  0.83287748  0.09672443    -0.76700
O1045       O  0.73154095  0.88714083  0.15901862    -0.77400
C1046       C  0.57810673  0.80218300  0.07779714     0.97800
O1047       O  0.60968428  0.84544090  0.16352522    -0.75400
O1048       O  0.65516632  0.75227070  0.09550141    -0.80600
C1049       C  0.68749261  0.77592632  0.16510629     1.00500
C1050       C  0.68697713  0.77144142  0.07775019     1.06400
O1051       O  0.71531527  0.80088636  0.14605949    -0.76200
C1052       C  0.58224763  0.80573320  0.16781143     1.04700
C1053       C  0.94090792  0.93864168  0.22835341     0.81900
N1054       N  0.97154367  0.50945262  0.24656652    -0.76400
C1055       C  0.52091184  0.56615832  0.23842201     0.84400
N1056       N  0.55588361  0.56157236  0.23463119    -0.76300
C1057       C  0.55104903  0.52131637  0.23239886     0.84500
N1058       N  0.50504035  0.94233667  0.22571790    -0.78000
C1059       C  0.70767317  0.98271887  0.22537807     0.81900
N1060       N  0.67036297  0.98344578  0.22453053    -0.76400
C1061       C  0.65948666  0.52746846  0.24264829     0.84400
N1062       N  0.68426768  0.53574501  0.26777465    -0.76300
C1063       C  0.71360944  0.52272022  0.26936303     0.84500
N1064       N  0.71807169  0.50053081  0.24551162    -0.78000
C1065       C  0.96093855  0.68520258  0.26949696     0.81900
N1066       N  0.50034300  0.73700587  0.25294619    -0.76400
C1067       C  0.51501823  0.72436659  0.22847759     0.84400
N1068       N  0.51487980  0.68626751  0.22922115    -0.76300
C1069       C  0.50097119  0.66078288  0.25417418     0.84500
N1070       N  0.95839722  0.64597289  0.27020989    -0.78000
C1071       C  0.78593011  0.76959862  0.26993461     0.81900
N1072       N  0.75857357  0.75978853  0.24578744    -0.76400
C1073       C  0.77291437  0.78421005  0.22006259     0.84400
N1074       N  0.81401402  0.81790825  0.21880278    -0.76300
C1075       C  0.84099736  0.82770464  0.24289045     0.84500
N1076       N  0.82675458  0.80336925  0.26828947    -0.78000
C1077       C  0.52598374  0.60995942  0.23944632    -0.14700
C1078       C  0.49810277  0.61800145  0.25436646    -0.29900
H1079       H  0.55349082  0.63622568  0.22813151     0.14300
H1080       H  0.95303952  0.56874636  0.26363121     0.14900
C1081       C  0.58807685  0.51487628  0.22826775    -0.14700
C1082       C  0.62578345  0.53947118  0.24259918    -0.29900
H1083       H  0.58243404  0.94620741  0.21788069     0.14300
H1084       H  0.62999895  0.56589015  0.25741879     0.14900
C1085       C  0.89669349  0.90114267  0.22725394    -0.14700
C1086       C  0.88569437  0.86410694  0.24186579    -0.29900
H1087       H  0.87206817  0.90510478  0.21603780     0.14300
H1088       H  0.90953229  0.86167211  0.25547898     0.14900
C1089       C  0.55800176  0.79062682  0.19694111    -0.14700
C1090       C  0.52795913  0.74836461  0.19960391    -0.29900
H1091       H  0.56908027  0.81172146  0.21693412     0.14300
H1092       H  0.51851737  0.72769431  0.17938470     0.14900
C1093       C  0.72134539  0.97157307  0.19664300    -0.14700
C1094       C  0.73108126  0.93988692  0.19368123    -0.29900
H1095       H  0.71226252  0.98226781  0.17628056     0.14300
H1096       H  0.73945006  0.92778719  0.21360968     0.14900
C1097       C  0.70425528  0.76432961  0.19232574    -0.14700
C1098       C  0.74607932  0.77556503  0.19263920    -0.29900
H1099       H  0.68515900  0.75340716  0.21296050     0.14300
H1100       H  0.76443302  0.78691381  0.17168007     0.14900
C1101       C  0.55739296  0.83788456  0.04040759    -0.14700
C1102       C  0.55310769  0.80028356  0.05025592    -0.29900
H1103       H  0.58080891  0.86773031  0.05182994     0.14300
H1104       H  0.53158785  0.76966839  0.03898198     0.14900
C1105       C  0.66280688  0.70116447  0.05277527    -0.14700
C1106       C  0.69198488  0.74406764  0.05410918    -0.29900
H1107       H  0.63668603  0.68763167  0.06910038     0.14300
H1108       H  0.71834805  0.75855601  0.03803770     0.14900
C1109       C  0.73597887  0.94763120  0.05213997    -0.14700
C1110       C  0.77573798  0.95696044  0.04385712    -0.29900
H1111       H  0.72155621  0.96509852  0.04237598     0.14300
H1112       H  0.78909689  0.93857419  0.05379583     0.14900
C1113       C  0.55139928  0.55069985  0.52006035    -0.14700
C1114       C  0.58604433  0.55219770  0.01297189    -0.29900
H1115       H  0.54550095  0.56979994  0.03525124     0.14300
H1116       H  0.58833904  0.53659583  0.49009948     0.14900
C1117       C  0.01246202  0.94136531  0.98307453    -0.14700
C1118       C  0.03811560  0.93070915  0.99816517    -0.29900
H1119       H  0.97760432  0.91042531  0.47311720     0.14300
H1120       H  0.54576055  0.96341133  0.00772372     0.14900
C1121       C  0.94814240  0.03036817  0.49467991    -0.15700
C1122       C  0.90931278  0.99736160  0.50245651    -0.29900
H1123       H  0.90316020  0.97770759  0.01192687     0.14300
H1124       H  0.92575414  0.53733137  0.49955593     0.14900
C1125       C  0.93555296  0.72280928  0.30519635    -0.14700
C1126       C  0.92809017  0.68914404  0.28700845    -0.29900
H1127       H  0.96524487  0.75366983  0.30373561     0.14300
H1128       H  0.89850308  0.65857211  0.29065252     0.14900
C1129       C  0.79789638  0.52851913  0.45238336    -0.14700
C1130       C  0.77864088  0.55214557  0.44965036    -0.29900
H1131       H  0.81580233  0.52661517  0.43305888     0.14300
H1132       H  0.76105401  0.55530847  0.46865778     0.14900
C1133       C  0.96181191  0.77928168  0.44775629    -0.14700
C1134       C  0.94071481  0.73561826  0.44645266    -0.29900
H1135       H  0.95785887  0.79689687  0.42914380     0.14300
H1136       H  0.94454265  0.71707881  0.46441089     0.14900
C1137       C  0.77746824  0.55467093  0.30316737    -0.14700
C1138       C  0.73507699  0.52820203  0.29891331    -0.29900
H1139       H  0.79898822  0.56536026  0.28372678     0.14300
H1140       H  0.71393907  0.51933970  0.31852391     0.14900
C1141       C  0.76369237  0.70470774  0.30102825    -0.14700
C1142       C  0.77289369  0.74598694  0.29878744    -0.29900
H1143       H  0.75488528  0.68408088  0.28081876     0.14300
H1144       H  0.78292416  0.76635107  0.31917806     0.14900
C1145       C  0.75082443  0.69951871  0.44558571    -0.14700
C1146       C  0.70850220  0.67102365  0.44835387    -0.29900
H1147       H  0.76898262  0.72070453  0.46452617     0.14300
H1148       H  0.69148943  0.64917755  0.42939401     0.14900
Fe1149     Fe  0.84961521  0.73026561  0.88530247     1.65800
Fe1150     Fe  0.76396500  0.63086084  0.87936640     1.73200
Fe1151     Fe  0.86325995  0.64454394  0.88542332     1.54400
O1152       O  0.90860536  0.69320714  0.85834399    -0.80000
O1153       O  0.76093781  0.59658702  0.91815518    -0.78300
O1154       O  0.88313286  0.73617463  0.84493195    -0.82500
O1155       O  0.90265567  0.74258313  0.91082504    -0.77300
O1156       O  0.83674942  0.60890647  0.84531514    -0.79100
O1157       O  0.75304041  0.67183686  0.90647275    -0.81800
C1158       C  0.91194065  0.72011666  0.92801476     0.98900
C1159       C  0.90735129  0.72023561  0.84019511     1.06400
O1160       O  0.82563550  0.66812636  0.88361478    -1.10800
O1161       O  0.76399566  0.66302449  0.83997510    -0.73300
O1162       O  0.80046154  0.72882004  0.86034523    -0.76700
O1163       O  0.89362988  0.67926617  0.92502194    -0.77400
C1164       C  0.77718140  0.70330930  0.83930971     0.97800
O1165       O  0.81579618  0.72275772  0.92552758    -0.75400
O1166       O  0.76748930  0.58572434  0.85204208    -0.80600
C1167       C  0.78623074  0.58366410  0.92667769     1.00500
C1168       C  0.79771111  0.58580455  0.83724847     1.06400
O1169       O  0.82154926  0.59444303  0.91330406    -0.76200
C1170       C  0.77551111  0.69710454  0.92814177     1.04700
C1171       C  0.97172865  0.01500215  0.00091292     0.81900
N1172       N  0.98255810  0.52087489  0.01589910    -0.76400
C1173       C  0.50831312  0.50145187  0.02069999     0.84400
N1174       N  0.53037401  0.02661994  0.48941009    -0.76300
C1175       C  0.01511753  0.97911666  0.48676324     0.84500
N1176       N  0.97395884  0.97920791  0.99406797    -0.78000
C1177       C  0.81022275  0.53307294  0.99288833     0.81900
N1178       N  0.84948126  0.53704248  0.99540132    -0.76400
C1179       C  0.87657229  0.03453928  0.00600576     0.84400
N1180       N  0.83474823  0.96943649  0.51706642    -0.76300
C1181       C  0.79750106  0.97010297  0.51700943     0.84500
N1182       N  0.79409862  0.01823902  0.00839893    -0.78000
C1183       C  0.66350017  0.67681046  0.52383690     0.81900
N1184       N  0.63056101  0.63518833  0.52559485    -0.76400
C1185       C  0.62387263  0.60592426  0.50332088     0.84400
N1186       N  0.65443797  0.60690987  0.99136721    -0.76300
C1187       C  0.68823503  0.64791158  0.98915723     0.84500
N1188       N  0.69019181  0.68959382  0.49918190    -0.78000
C1189       C  0.51882085  0.84152092  0.52399536     0.81900
N1190       N  0.99603853  0.79044097  0.49907506    -0.76400
C1191       C  0.99604668  0.81523972  0.97645793     0.84400
N1192       N  0.00755663  0.85772049  0.97494970    -0.76300
C1193       C  0.02227872  0.87661485  0.49597592     0.84500
N1194       N  0.52424305  0.88188526  0.52264087    -0.78000
Fe1195     Fe  0.64028337  0.87252413  0.62233336     1.65800
Fe1196     Fe  0.61760131  0.76957737  0.61993723     1.73200
Fe1197     Fe  0.71994492  0.85083644  0.61874823     1.54400
O1198       O  0.73169610  0.90267226  0.59154308    -0.80000
O1199       O  0.64624353  0.75916294  0.65784781    -0.78300
O1200       O  0.66947399  0.89919915  0.58085321    -0.82500
O1201       O  0.69467411  0.91895403  0.64436455    -0.77300
O1202       O  0.71357995  0.81496145  0.57908998    -0.79100
O1203       O  0.57723560  0.77788372  0.64928629    -0.81800
C1204       C  0.71658152  0.91309144  0.66421574     0.98900
C1205       C  0.70868073  0.91216837  0.57487817     1.06400
O1206       O  0.65939837  0.83071222  0.61977542    -1.10800
O1207       O  0.58776864  0.77702123  0.58172307    -0.73300
O1208       O  0.58318692  0.83244795  0.59997758    -0.76700
O1209       O  0.72847645  0.88561295  0.65956076    -0.77400
C1210       C  0.57382577  0.80317427  0.57988327     0.97800
O1211       O  0.61202407  0.84690581  0.66439062    -0.75400
O1212       O  0.65298659  0.75451076  0.59081668    -0.80600
C1213       C  0.68590329  0.77196462  0.66137736     1.00500
C1214       C  0.68646034  0.77493534  0.57459285     1.06400
O1215       O  0.71470134  0.80117161  0.64488302    -0.76200
C1216       C  0.58481913  0.80715786  0.66914174     1.04700
C1217       C  0.92193838  0.92791617  0.74111325     0.81900
N1218       N  0.96939310  0.52038380  0.74503940    -0.76400
C1219       C  0.53403283  0.57478410  0.74385724     0.84400
N1220       N  0.56875990  0.56953685  0.74119074    -0.76300
C1221       C  0.56309723  0.52903414  0.73798048     0.84500
N1222       N  0.49471326  0.93257114  0.73511542    -0.78000
C1223       C  0.69838749  0.97572076  0.72697736     0.81900
N1224       N  0.66058578  0.97543830  0.72775043    -0.76400
C1225       C  0.66990129  0.53173691  0.74854439     0.84400
N1226       N  0.69564877  0.53986050  0.77312521    -0.76300
C1227       C  0.72321239  0.52450351  0.77436356     0.84500
N1228       N  0.72474442  0.50011729  0.75082190    -0.78000
C1229       C  0.97362057  0.70300689  0.78146711     0.81900
N1230       N  0.50562699  0.74062070  0.75614589    -0.76400
C1231       C  0.52178927  0.72871297  0.73217705     0.84400
N1232       N  0.52448412  0.69221190  0.73385156    -0.76300
C1233       C  0.51212065  0.66775688  0.75931522     0.84500
N1234       N  0.97162783  0.66401446  0.78204965    -0.78000
C1235       C  0.77639145  0.74178246  0.76063033     0.81900
N1236       N  0.75158719  0.73674755  0.73576029    -0.76400
C1237       C  0.76647015  0.76850453  0.71440533     0.84400
N1238       N  0.80553995  0.80467936  0.71804422    -0.76300
C1239       C  0.83014382  0.80980251  0.74277738     0.84500
N1240       N  0.81559668  0.77815094  0.76384538    -0.78000
C1241       C  0.53961131  0.61867981  0.74572099    -0.14700
C1242       C  0.51079486  0.62582545  0.76007980    -0.29900
H1243       H  0.56744343  0.64533793  0.73498588     0.14300
H1244       H  0.95660491  0.58152222  0.77244125     0.14900
C1245       C  0.59951278  0.52154570  0.73450370    -0.14700
C1246       C  0.63736141  0.54533302  0.74887041    -0.29900
H1247       H  0.57094766  0.93456415  0.72637524     0.14300
H1248       H  0.64256281  0.57219178  0.76359435     0.14900
C1249       C  0.87979558  0.88811065  0.73750229    -0.14700
C1250       C  0.87248773  0.84925024  0.74676819    -0.29900
H1251       H  0.85360319  0.89111165  0.72804951     0.14300
H1252       H  0.89742750  0.84669185  0.75878241     0.14900
C1253       C  0.56237462  0.79306553  0.69894785    -0.14700
C1254       C  0.53242423  0.75108153  0.70270024    -0.29900
H1255       H  0.57470622  0.81489114  0.71852599     0.14300
H1256       H  0.52176786  0.72951221  0.68293853     0.14900
C1257       C  0.71060286  0.96495958  0.69752649    -0.14700
C1258       C  0.72505165  0.93702279  0.69377144    -0.29900
H1259       H  0.69850051  0.97370433  0.67775606     0.14300
H1260       H  0.73587398  0.92654038  0.71331546     0.14900
C1261       C  0.70087701  0.75492740  0.68631775    -0.14700
C1262       C  0.74233229  0.76538051  0.68667565    -0.29900
H1263       H  0.68048600  0.73995566  0.70596812     0.14300
H1264       H  0.76226727  0.78117792  0.66695038     0.14900
C1265       C  0.53541470  0.83144148  0.55142853    -0.14700
C1266       C  0.54715222  0.80132192  0.55348057    -0.29900
H1267       H  0.54275715  0.85417618  0.57025253     0.14300
H1268       H  0.54130592  0.77899446  0.53466625     0.14900
C1269       C  0.66695219  0.70653290  0.54868648    -0.14700
C1270       C  0.69257367  0.75002434  0.54963187    -0.29900
H1271       H  0.64428360  0.69074723  0.56711496     0.14300
H1272       H  0.71610029  0.76685021  0.53190316     0.14900
C1273       C  0.73021868  0.94000723  0.54822165    -0.14700
C1274       C  0.76215892  0.93665527  0.53513009    -0.29900
H1275       H  0.72353409  0.96528575  0.54184933     0.14300
H1276       H  0.76682097  0.91015423  0.54205046     0.14900
C1277       C  0.54829284  0.54364556  0.02484232    -0.14700
C1278       C  0.58729472  0.56093783  0.50450550    -0.29900
H1279       H  0.54900165  0.57599168  0.53224070     0.14300
H1280       H  0.58811872  0.52692782  0.00049455     0.14900
C1281       C  0.00779434  0.93479808  0.48330351    -0.14700
C1282       C  0.03404620  0.92260922  0.49562542    -0.29900
H1283       H  0.98589150  0.91675800  0.96962769     0.14300
H1284       H  0.54060493  0.96280656  0.51251386     0.14900
C1285       C  0.92917506  0.01002015  0.00660007    -0.15700
C1286       C  0.92067609  0.04219439  0.00298458    -0.29900
H1287       H  0.95227348  0.06200010  0.48987228     0.14300
H1288       H  0.92507283  0.54323601  0.00657178     0.14900
C1289       C  0.93341134  0.73022629  0.81190923    -0.14700
C1290       C  0.96262052  0.71738702  0.80989752    -0.29900
H1291       H  0.92341938  0.74019210  0.79165762     0.14300
H1292       H  0.97123728  0.70676346  0.83051063     0.14900
C1293       C  0.80756886  0.56516520  0.97372895    -0.14700
C1294       C  0.77584397  0.55569728  0.95367576    -0.29900
H1295       H  0.83754621  0.59566917  0.97114004     0.14300
H1296       H  0.74534194  0.52562308  0.95490156     0.14900
C1297       C  0.96939031  0.78674390  0.95124603    -0.14700
C1298       C  0.94474375  0.74324363  0.95224152    -0.29900
H1299       H  0.96689007  0.80359825  0.93151677     0.14300
H1300       H  0.94671379  0.72536002  0.97147797     0.14900
C1301       C  0.78612363  0.56065877  0.80825281    -0.14700
C1302       C  0.74525058  0.52920435  0.80353644    -0.29900
H1303       H  0.80790200  0.57416312  0.78908054     0.14300
H1304       H  0.72404008  0.51702805  0.82312334     0.14900
C1305       C  0.76794548  0.72373431  0.81381039    -0.14700
C1306       C  0.76172668  0.70917172  0.78491341    -0.29900
H1307       H  0.77603082  0.75710819  0.81784915     0.14300
H1308       H  0.75384967  0.67630281  0.77940075     0.14900
C1309       C  0.75278822  0.69482943  0.95680668    -0.14700
C1310       C  0.71765625  0.65672979  0.96351236    -0.29900
H1311       H  0.76457421  0.72264564  0.97207262     0.14300
H1312       H  0.70859782  0.62909372  0.94839939     0.14900
loop_ 
_geom_bond_atom_site_label_1 
_geom_bond_atom_site_label_2 
_geom_bond_distance 
_geom_bond_site_symmetry_2 
_ccdc_geom_bond_type 
Fe1          O17   2.091       .  S
Fe1           O7   2.058       .  S
Fe1          O14   2.058       .  S
Fe1           O6   2.089       .  S
Fe1          O12   1.946       .  S
Fe2           O5   2.090       .  S
Fe2           O9   2.063       .  S
Fe2          O13   2.089       .  S
Fe2          O18   2.053       .  S
Fe2          O12   1.952       .  S
Fe3          O21   2.061       .  S
Fe3           O8   2.089       .  S
Fe3          O15   2.086       .  S
Fe3           O4   2.066       .  S
Fe3          O12   1.945       .  S
O4           C11   1.273       .  A
O5           C19   1.275       .  A
O6           C11   1.274       .  A
O7           C10   1.268       .  A
O8           C20   1.272       .  A
O9           C22   1.270       .  A
C10          O15   1.270       .  A
C10         C150   1.488       .  S
C11         C141   1.492       .  S
O13          C16   1.272       .  A
O14          C16   1.270       .  A
C16         C157   1.486       .  S
O17          C22   1.273       .  A
O18          C20   1.269       .  A
C19          O21   1.271       .  A
C19         C146   1.478       .  S
C20         C153   1.486       .  S
C22         C161   1.489       .  S
C23         C137   1.473       .  S
C23          N28   1.356       .  A
C23         N352   1.357       .  A
N24         C351   1.358       .  A
N24         C681   1.359       .  A
C25         C129   1.479       .  S
C25         N680   1.363       .  A
C25         N518   1.361       .  A
N26         C517   1.365       .  A
N26         C683   1.364   1_455  A
C27         C133   1.478       .  S
C27         N682   1.365       .  A
C27         N192   1.359       .  A
N28         C191   1.359       .  A
C29         C145   1.474       .  S
C29          N30   1.360       .  A
C29         N362   1.369   1_545  A
N30         C359   1.353   1_545  A
C31         C138   1.473       .  S
C31         N358   1.350       .  A
C31         N196   1.353       .  A
N32          C33   1.360       .  A
N32         C195   1.353       .  A
C33         C126   1.470       .  S
C33         N198   1.366       .  A
N34         C357   1.365       .  A
N34         C197   1.364       .  A
C35         C121   1.473       .  S
C35          N36   1.360       .  A
C35          N40   1.365   1_554  A
N36          C37   1.354   1_554  A
C37         C130   1.482       .  S
C37         N202   1.353       .  A
N38          C39   1.360       .  A
N38         C201   1.353       .  A
C39         C162   1.474       .  S
C39         N204   1.366       .  A
N40         C203   1.365       .  A
C41         C117   1.471       .  S
C41          N46   1.361       .  A
C41         N698   1.364       .  A
N42         C697   1.366       .  A
N42         C207   1.366   1_554  A
C43         C149   1.472       .  S
C43          N44   1.358       .  A
C43         N206   1.365       .  A
N44         C209   1.353       .  A
C45         C134   1.479       .  S
C45         N208   1.354   1_554  A
C45         N702   1.351       .  A
N46         C701   1.353       .  A
Fe47         O63   2.089       .  S
Fe47         O53   2.062       .  S
Fe47         O60   2.060       .  S
Fe47         O52   2.092       .  S
Fe47         O58   1.933       .  S
Fe48         O51   2.088       .  S
Fe48         O55   2.060       .  S
Fe48         O59   2.097       .  S
Fe48         O64   2.056       .  S
Fe48         O58   1.935       .  S
Fe49         O67   2.065       .  S
Fe49         O54   2.095       .  S
Fe49         O61   2.086       .  S
Fe49         O50   2.059       .  S
Fe49         O58   1.933       .  S
O50          C57   1.270       .  A
O51          C65   1.276       .  A
O52          C57   1.274       .  A
O53          C56   1.272       .  A
O54          C66   1.272       .  A
O55          C68   1.270       .  A
C56          O61   1.273       .  A
C56         C110   1.486       .  S
C57         C125   1.486       .  S
O59          C62   1.276       .  A
O60          C62   1.270       .  A
C62         C118   1.487       .  S
O63          C68   1.274       .  A
O64          C66   1.266       .  A
C65          O67   1.274       .  A
C65         C113   1.485       .  S
C66         C122   1.489       .  S
C68         C105   1.489       .  S
C69         C101   1.480       .  S
C69         N398   1.359       .  A
C69         N730   1.358       .  A
N70         C397   1.357       .  A
N70         C727   1.358   1_565  A
C71          C93   1.475       .  S
C71          N72   1.356   1_655  A
C71         N726   1.360   1_545  A
N72          C73   1.358   1_545  A
C73          C97   1.476       .  S
C73         N402   1.359   1_455  A
N74         C725   1.360   1_455  A
N74         C401   1.358       .  A
C75         C109   1.473       .  S
C75          N76   1.360       .  A
C75         N408   1.366       .  A
N76         C405   1.353       .  A
C77          C98   1.475       .  S
C77          N78   1.351   1_565  A
C77         N404   1.352       .  A
N78          C79   1.359       .  A
C79         C154   1.472       .  S
C79          N80   1.366   1_545  A
N80         C403   1.365       .  A
C81         C142   1.477       .  S
C81          N86   1.359       .  A
C81         N738   1.369       .  A
N82          C83   1.366       .  A
N82         C737   1.365   1_455  A
C83         C106   1.474       .  S
C83          N84   1.361       .  A
N84          C85   1.353   1_455  A
C85          C94   1.476       .  S
C85         N742   1.350       .  A
N86         C741   1.350       .  A
C87         C158   1.474       .  S
C87          N88   1.367       .  A
C87          N92   1.358       .  A
N88          C89   1.368       .  A
C89         C114   1.473       .  S
C89          N90   1.360       .  A
N90          C91   1.352       .  A
C91         C102   1.477       .  S
C91          N92   1.350       .  A
C93          C94   1.342       .  D
C93          H95   1.087   1_655  S
C94         H752   1.087       .  S
H96         C750   1.087       .  S
C97          C98   1.344       .  D
C97         H427   1.087       .  S
C98         H100   1.087   1_565  S
H99         C425   1.087       .  S
C101        C102   1.346       .  D
C101        H103   1.087       .  S
C102        H104   1.087       .  S
C105        C106   1.350       .  D
C105        H107   1.086       .  S
C106        H108   1.087       .  S
C109        C110   1.348       .  D
C109        H111   1.087       .  S
C110        H112   1.086       .  S
C113        C114   1.348       .  D
C113        H115   1.086       .  S
C114        H116   1.088       .  S
C117        C118   1.350       .  D
C117        H119   1.087       .  S
C118        H120   1.086       .  S
C121        C122   1.351       .  D
C121        H123   1.087       .  S
C122        H124   1.086       .  S
C125        C126   1.347       .  D
C125        H127   1.086       .  S
C126        H128   1.087       .  S
C129        C294   1.345       .  D
C129        H295   1.087       .  S
C130        C293   1.346   1_556  D
C130        H296   1.087       .  S
H131        C293   1.087       .  S
H132        C294   1.087       .  S
C133        C134   1.342       .  D
C133        H299   1.087   1_554  S
C134        H792   1.087       .  S
H135        C297   1.087       .  S
H136        C790   1.086       .  S
C137        C138   1.341       .  D
C137        H303   1.087       .  S
C138        H468   1.088       .  S
H139        C301   1.087       .  S
H140        C466   1.087       .  S
C141        C142   1.349       .  D
C141        H143   1.086       .  S
C142        H144   1.087       .  S
C145        C146   1.345       .  D
C145        H147   1.089       .  S
C146        H148   1.086       .  S
C149        C150   1.348       .  D
C149        H151   1.087       .  S
C150        H152   1.086       .  S
C153        C154   1.348       .  D
C153        H155   1.086       .  S
C154        H156   1.088       .  S
C157        C158   1.348       .  D
C157        H159   1.086       .  S
C158        H160   1.088       .  S
C161        C162   1.349       .  D
C161        H163   1.086       .  S
C162        H164   1.087       .  S
Fe165       O181   2.092       .  S
Fe165       O171   2.058       .  S
Fe165       O178   2.071       .  S
Fe165       O170   2.078       .  S
Fe165       O176   1.936       .  S
Fe166       O169   2.084       .  S
Fe166       O173   2.064       .  S
Fe166       O177   2.080       .  S
Fe166       O182   2.067       .  S
Fe166       O176   1.937       .  S
Fe167       O185   2.076       .  S
Fe167       O172   2.083       .  S
Fe167       O179   2.094       .  S
Fe167       O168   2.073       .  S
Fe167       O176   1.934       .  S
O168        C175   1.276       .  A
O169        C183   1.274       .  A
O170        C175   1.274       .  A
O171        C174   1.268       .  A
O172        C184   1.271       .  A
O173        C186   1.267       .  A
C174        O179   1.272       .  A
C174        C314   1.491       .  S
C175        C305   1.483       .  S
O177        C180   1.274       .  A
O178        C180   1.275       .  A
C180        C321   1.484       .  S
O181        C186   1.271       .  A
O182        C184   1.272       .  A
C183        O185   1.273       .  A
C183        C310   1.481       .  S
C184        C317   1.488       .  S
C186        C325   1.486       .  S
C187        C301   1.474       .  S
C187        N516   1.357       .  A
C187        N192   1.356       .  A
N188        C515   1.362       .  A
N188        C845   1.365   1_554  A
C189        C293   1.481   1_556  S
C189        N844   1.362   1_556  A
C189        N354   1.365       .  A
N190        C353   1.364       .  A
N190        C847   1.363   1_455  A
C191        C297   1.475       .  S
C191        N846   1.364       .  A
C193        C309   1.469       .  S
C193        N194   1.360       .  A
C193        N526   1.366   1_556  A
N194        C523   1.353       .  A
C195        C302   1.472       .  S
C195        N522   1.349   1_554  A
N196        C197   1.361       .  A
C197        C290   1.469       .  S
N198        C521   1.366   1_554  A
C199        C285   1.472       .  S
C199        N200   1.360       .  A
C199        N204   1.366       .  A
N200        C201   1.352       .  A
C201        C294   1.479       .  S
N202        C203   1.360       .  A
C203        C326   1.470       .  S
C205        C281   1.469       .  S
C205        N862   1.364       .  A
C205        N210   1.359       .  A
N206        C861   1.365       .  A
C207        C313   1.475       .  S
C207        N208   1.361       .  A
C209        C298   1.479       .  S
C209        N866   1.352       .  A
N210        C865   1.352       .  A
Fe211       O227   2.089       .  S
Fe211       O217   2.072       .  S
Fe211       O224   2.060       .  S
Fe211       O216   2.099       .  S
Fe211       O222   1.932       .  S
Fe212       O215   2.088       .  S
Fe212       O219   2.069       .  S
Fe212       O223   2.093       .  S
Fe212       O228   2.066       .  S
Fe212       O222   1.929       .  S
Fe213       O231   2.060       .  S
Fe213       O218   2.092       .  S
Fe213       O225   2.077       .  S
Fe213       O214   2.055       .  S
Fe213       O222   1.931       .  S
O214        C221   1.266       .  A
O215        C229   1.275       .  A
O216        C221   1.273       .  A
O217        C220   1.275       .  A
O218        C230   1.274       .  A
O219        C232   1.275       .  A
C220        O225   1.273       .  A
C220        C274   1.483       .  S
C221        C289   1.487       .  S
O223        C226   1.273       .  A
O224        C226   1.268       .  A
C226        C282   1.485       .  S
O227        C232   1.276       .  A
O228        C230   1.270       .  A
C229        O231   1.272       .  A
C229        C277   1.486       .  S
C230        C286   1.487       .  S
C232        C269   1.489       .  S
C233        C265   1.479       .  S
C233        N562   1.356       .  A
C233        N894   1.357       .  A
N234        C561   1.356       .  A
N234        C891   1.357   1_565  A
C235        C257   1.478       .  S
C235        N890   1.358   1_545  A
C235        N236   1.360       .  A
N236        C237   1.361   1_545  A
C237        C261   1.477   1_655  S
C237        N566   1.358       .  A
N238        C889   1.358   1_455  A
N238        C565   1.357       .  A
C239        C273   1.471       .  S
C239        N240   1.359       .  A
C239        N572   1.365       .  A
N240        C569   1.353       .  A
C241        C262   1.476       .  S
C241        N568   1.352       .  A
C241        N242   1.349   1_565  A
N242        C243   1.357       .  A
C243        C318   1.473       .  S
C243        N244   1.368   1_545  A
N244        C567   1.368       .  A
C245        C306   1.473       .  S
C245        N902   1.368       .  A
C245        N250   1.357       .  A
N246        C901   1.368   1_455  A
N246        C247   1.367       .  A
C247        C270   1.474       .  S
C247        N248   1.358       .  A
N248        C249   1.350   1_455  A
C249        C258   1.477       .  S
C249        N906   1.353       .  A
N250        C905   1.349       .  A
C251        C322   1.472       .  S
C251        N252   1.366       .  A
C251        N256   1.356       .  A
N252        C253   1.367       .  A
C253        C278   1.473       .  S
C253        N254   1.361       .  A
N254        C255   1.353       .  A
C255        C266   1.475       .  S
C255        N256   1.349       .  A
C257        C258   1.343       .  D
C257        H259   1.087       .  S
C258        H916   1.087   1_655  S
H260        C914   1.087       .  S
C261        C262   1.343       .  D
C261        H591   1.087       .  S
C262        H264   1.087   1_565  S
H263        C589   1.087       .  S
C265        C266   1.344       .  D
C265        H267   1.087       .  S
C266        H268   1.087       .  S
C269        C270   1.348       .  D
C269        H271   1.086       .  S
C270        H272   1.088       .  S
C273        C274   1.347       .  D
C273        H275   1.087       .  S
C274        H276   1.086       .  S
C277        C278   1.349       .  D
C277        H279   1.085       .  S
C278        H280   1.087       .  S
C281        C282   1.347       .  D
C281        H283   1.087       .  S
C282        H284   1.086       .  S
C285        C286   1.348       .  D
C285        H287   1.087       .  S
C286        H288   1.086       .  S
C289        C290   1.350       .  D
C289        H291   1.086       .  S
C290        H292   1.087       .  S
C297        C298   1.343       .  D
C298        H956   1.087       .  S
H300        C954   1.086       .  S
C301        C302   1.342       .  D
C302        H632   1.087   1_554  S
H304        C630   1.087       .  S
C305        C306   1.345       .  D
C305        H307   1.086       .  S
C306        H308   1.088       .  S
C309        C310   1.345       .  D
C309        H311   1.087       .  S
C310        H312   1.087       .  S
C313        C314   1.351       .  D
C313        H315   1.087       .  S
C314        H316   1.086       .  S
C317        C318   1.346       .  D
C317        H319   1.086       .  S
C318        H320   1.088       .  S
C321        C322   1.346       .  D
C321        H323   1.085       .  S
C322        H324   1.088       .  S
C325        C326   1.348       .  D
C325        H327   1.086       .  S
C326        H328   1.087       .  S
Fe329       O345   2.085       .  S
Fe329       O335   2.060       .  S
Fe329       O342   2.064       .  S
Fe329       O334   2.096       .  S
Fe329       O340   1.927       .  S
Fe330       O333   2.076       .  S
Fe330       O337   2.077       .  S
Fe330       O341   2.082       .  S
Fe330       O346   2.062       .  S
Fe330       O340   1.931       .  S
Fe331       O349   2.073       .  S
Fe331       O336   2.094       .  S
Fe331       O343   2.094       .  S
Fe331       O332   2.069       .  S
Fe331       O340   1.922       .  S
O332        C339   1.272       .  A
O333        C347   1.273       .  A
O334        C339   1.276       .  A
O335        C338   1.270       .  A
O336        C348   1.274       .  A
O337        C350   1.275       .  A
C338        O343   1.275       .  A
C338        C478   1.491       .  S
C339        C469   1.491       .  S
O341        C344   1.269       .  A
O342        C344   1.268       .  A
C344        C485   1.483       .  S
O345        C350   1.275       .  A
O346        C348   1.270       .  A
C347        O349   1.275       .  A
C347        C474   1.482       .  S
C348        C481   1.486       .  S
C350        C489   1.489       .  S
C351        C465   1.478       .  S
C351        N356   1.359   1_545  A
N352       C1009   1.357       .  A
C353        C457   1.480       .  S
C353       N1008   1.360   1_455  A
N354       C1011   1.362   1_545  A
C355        C461   1.475       .  S
C355       N1010   1.360   1_565  A
C355        N520   1.354       .  A
N356        C519   1.356       .  A
C357        C473   1.469       .  S
C357        N358   1.356       .  A
C359        C466   1.473       .  S
C359        N524   1.348       .  A
N360        C523   1.355   1_554  A
N360        C361   1.359   1_545  A
C361        C454   1.478       .  S
C361        N526   1.365   1_565  A
N362        C525   1.368       .  A
C363        C449   1.474       .  S
C363        N364   1.363       .  A
C363        N368   1.364   1_554  A
N364        C365   1.355   1_554  A
C365        C458   1.483       .  S
C365        N530   1.351       .  A
N366        C529   1.350       .  A
N366        C367   1.358       .  A
C367        C490   1.473       .  S
C367        N532   1.367       .  A
N368        C531   1.364       .  A
C369        C445   1.470       .  S
C369       N1026   1.364       .  A
C369        N374   1.359       .  A
N370       C1025   1.368   1_556  A
N370        C535   1.368       .  A
C371        C477   1.474       .  S
C371        N534   1.365       .  A
C371        N372   1.360       .  A
N372        C537   1.353       .  A
C373        C462   1.479       .  S
C373        N536   1.352       .  A
C373       N1030   1.349   1_556  A
N374       C1029   1.351   1_554  A
Fe375       O391   2.090       .  S
Fe375       O381   2.055       .  S
Fe375       O388   2.054       .  S
Fe375       O380   2.093       .  S
Fe375       O386   1.938       .  S
Fe376       O379   2.099       .  S
Fe376       O383   2.069       .  S
Fe376       O387   2.100       .  S
Fe376       O392   2.052       .  S
Fe376       O386   1.927       .  S
Fe377       O395   2.051       .  S
Fe377       O382   2.100       .  S
Fe377       O389   2.100       .  S
Fe377       O378   2.069       .  S
Fe377       O386   1.925       .  S
O378        C385   1.273       .  A
O379        C393   1.277       .  A
O380        C385   1.276       .  A
O381        C384   1.267       .  A
O382        C394   1.277       .  A
O383        C396   1.274       .  A
C384        O389   1.274       .  A
C384        C438   1.489       .  S
C385        C453   1.492       .  S
O387        C390   1.273       .  A
O388        C390   1.265       .  A
C390        C446   1.488       .  S
O391        C396   1.276       .  A
O392        C394   1.269       .  A
C393        O395   1.269       .  A
C393        C441   1.489       .  S
C394        C450   1.490       .  S
C396        C433   1.487       .  S
C397        C429   1.478       .  S
C397       N1058   1.363       .  A
N398       C1055   1.362       .  A
C399        C421   1.481       .  S
C399       N1054   1.361   1_455  A
C399        N400   1.361       .  A
N400        C401   1.361       .  A
C401        C425   1.479       .  S
N402       C1053   1.362       .  A
C403        C437   1.470       .  S
C403        N404   1.359       .  A
C405        C426   1.479       .  S
C405        N406   1.352       .  A
N406        C407   1.359       .  A
C407        C482   1.470       .  S
C407        N408   1.364       .  A
C409        C470   1.474       .  S
C409       N1066   1.366       .  A
C409        N414   1.360       .  A
N410       C1065   1.369       .  A
N410        C411   1.369   1_655  A
C411        C434   1.477       .  S
C411        N412   1.359       .  A
N412        C413   1.352   1_455  A
C413        C422   1.481       .  S
C413       N1070   1.351       .  A
N414       C1069   1.353       .  A
C415        C486   1.464       .  S
C415        N416   1.363       .  A
C415        N420   1.357       .  A
N416        C417   1.364       .  A
C417        C442   1.474       .  S
C417        N418   1.363       .  A
N418        C419   1.356       .  A
C419        C430   1.479       .  S
C419        N420   1.350       .  A
C421        C422   1.347   1_455  D
C421        H423   1.087       .  S
C422       H1080   1.087       .  S
H424       C1078   1.087       .  S
C425        C426   1.344       .  D
C426        H428   1.087       .  S
C429        C430   1.343       .  D
C429        H431   1.087       .  S
C430        H432   1.087       .  S
C433        C434   1.348       .  D
C433        H435   1.086       .  S
C434        H436   1.089       .  S
C437        C438   1.350       .  D
C437        H439   1.087       .  S
C438        H440   1.086       .  S
C441        C442   1.354       .  D
C441        H443   1.085       .  S
C442        H444   1.086       .  S
C445        C446   1.350       .  D
C445        H447   1.087       .  S
C446        H448   1.086       .  S
C449        C450   1.353       .  D
C449        H451   1.087       .  S
C450        H452   1.086       .  S
C453        C454   1.351       .  D
C453        H455   1.086       .  S
C454        H456   1.087       .  S
C457        C622   1.344       .  D
C457        H623   1.087       .  S
C458        C621   1.344   1_556  D
C458        H624   1.087       .  S
H459        C621   1.087       .  S
H460        C622   1.087       .  S
C461        C462   1.343       .  D
C461        H627   1.087       .  S
C462       H1120   1.087   1_556  S
H463        C625   1.087       .  S
H464       C1118   1.087   1_554  S
C465        C466   1.344   1_545  D
C465        H631   1.087       .  S
H467        C629   1.087   1_565  S
C469        C470   1.351       .  D
C469        H471   1.086       .  S
C470        H472   1.087       .  S
C473        C474   1.345       .  D
C473        H475   1.088       .  S
C474        H476   1.086       .  S
C477        C478   1.351       .  D
C477        H479   1.087       .  S
C478        H480   1.086       .  S
C481        C482   1.348       .  D
C481        H483   1.086       .  S
C482        H484   1.087       .  S
C485        C486   1.345       .  D
C485        H487   1.086       .  S
C486        H488   1.087       .  S
C489        C490   1.347       .  D
C489        H491   1.086       .  S
C490        H492   1.087       .  S
Fe493       O509   2.087       .  S
Fe493       O499   2.069       .  S
Fe493       O506   2.080       .  S
Fe493       O498   2.096       .  S
Fe493       O504   1.927       .  S
Fe494       O497   2.077       .  S
Fe494       O501   2.060       .  S
Fe494       O505   2.073       .  S
Fe494       O510   2.061       .  S
Fe494       O504   1.935       .  S
Fe495       O513   2.078       .  S
Fe495       O500   2.091       .  S
Fe495       O507   2.086       .  S
Fe495       O496   2.059       .  S
Fe495       O504   1.931       .  S
O496        C503   1.269       .  A
O497        C511   1.272       .  A
O498        C503   1.273       .  A
O499        C502   1.276       .  A
O500        C512   1.271       .  A
O501        C514   1.269       .  A
C502        O507   1.276       .  A
C502        C642   1.488       .  S
C503        C633   1.490       .  S
O505        C508   1.272       .  A
O506        C508   1.273       .  A
C508        C649   1.469       .  S
O509        C514   1.271       .  A
O510        C512   1.267       .  A
C511        O513   1.276       .  A
C511        C638   1.485       .  S
C512        C645   1.485       .  S
C514        C653   1.485       .  S
C515        C629   1.474       .  S
C515        N520   1.354   1_544  A
N516       C1173   1.357       .  A
C517        C621   1.480       .  S
C517       N1172   1.359   1_455  A
N518       C1175   1.360   1_545  A
C519        C625   1.475       .  S
C519       N1174   1.360   1_565  A
C521        C637   1.471       .  S
C521        N522   1.357       .  A
C523        C630   1.483       .  S
N524        C525   1.356       .  A
C525        C618   1.476       .  S
C527        C613   1.476       .  S
C527        N528   1.361       .  A
C527        N532   1.367       .  A
N528        C529   1.354       .  A
C529        C622   1.480       .  S
N530        C531   1.358       .  A
C531        C654   1.469       .  S
C533        C609   1.467       .  S
C533       N1190   1.364   1_455  A
C533        N538   1.358       .  A
N534       C1189   1.366       .  A
C535        C641   1.475       .  S
C535        N536   1.359       .  A
C537        C626   1.476       .  S
C537       N1194   1.349       .  A
N538       C1193   1.351       .  A
Fe539       O555   2.078       .  S
Fe539       O545   2.055       .  S
Fe539       O552   2.060       .  S
Fe539       O544   2.082       .  S
Fe539       O550   1.945       .  S
Fe540       O543   2.094       .  S
Fe540       O547   2.079       .  S
Fe540       O551   2.088       .  S
Fe540       O556   2.054       .  S
Fe540       O550   1.934       .  S
Fe541       O559   2.056       .  S
Fe541       O546   2.100       .  S
Fe541       O553   2.101       .  S
Fe541       O542   2.076       .  S
Fe541       O550   1.928       .  S
O542        C549   1.276       .  A
O543        C557   1.276       .  A
O544        C549   1.274       .  A
O545        C548   1.265       .  A
O546        C558   1.276       .  A
O547        C560   1.277       .  A
C548        O553   1.272       .  A
C548        C602   1.492       .  S
C549        C617   1.484       .  S
O551        C554   1.269       .  A
O552        C554   1.266       .  A
C554        C610   1.485       .  S
O555        C560   1.274       .  A
O556        C558   1.270       .  A
C557        O559   1.271       .  A
C557        C605   1.490       .  S
C558        C614   1.492       .  S
C560        C597   1.484       .  S
C561        C593   1.476       .  S
C561       N1222   1.362       .  A
N562       C1219   1.362       .  A
C563        C585   1.476       .  S
C563       N1218   1.361   1_455  A
C563        N564   1.360       .  A
N564        C565   1.360       .  A
C565        C589   1.474       .  S
N566       C1217   1.360       .  A
C567        C601   1.475       .  S
C567        N568   1.361       .  A
C569        C590   1.475       .  S
C569        N570   1.351       .  A
N570        C571   1.358       .  A
C571        C646   1.467       .  S
C571        N572   1.363       .  A
C573        C634   1.474       .  S
C573       N1230   1.366       .  A
C573        N578   1.359       .  A
N574       C1229   1.366       .  A
N574        C575   1.366       .  A
C575        C598   1.470   1_655  S
C575        N576   1.357       .  A
N576        C577   1.351       .  A
C577        C586   1.476       .  S
C577       N1234   1.352       .  A
N578       C1233   1.352       .  A
C579        C650   1.470       .  S
C579        N580   1.366       .  A
C579        N584   1.360       .  A
N580        C581   1.363       .  A
C581        C606   1.476       .  S
C581        N582   1.358       .  A
N582        C583   1.354       .  A
C583        C594   1.481       .  S
C583        N584   1.353       .  A
C585        C586   1.344   1_455  D
C585        H587   1.087       .  S
C586       H1244   1.087       .  S
H588       C1242   1.087       .  S
C589        C590   1.343       .  D
C590        H592   1.087       .  S
C593        C594   1.345       .  D
C593        H595   1.087       .  S
C594        H596   1.087       .  S
C597        C598   1.345       .  D
C597        H599   1.086       .  S
C598        H600   1.087       .  S
C601        C602   1.351       .  D
C601        H603   1.087       .  S
C602        H604   1.086       .  S
C605        C606   1.351       .  D
C605        H607   1.086       .  S
C606        H608   1.087       .  S
C609        C610   1.346       .  D
C609        H611   1.087       .  S
C610        H612   1.086       .  S
C613        C614   1.351       .  D
C613        H615   1.087       .  S
C614        H616   1.086       .  S
C617        C618   1.345       .  D
C617        H619   1.086       .  S
C618        H620   1.089       .  S
C625        C626   1.342       .  D
C626       H1284   1.087       .  S
H628       C1282   1.087       .  S
C629        C630   1.343   1_554  D
C633        C634   1.350       .  D
C633        H635   1.086       .  S
C634        H636   1.087       .  S
C637        C638   1.346       .  D
C637        H639   1.087       .  S
C638        H640   1.086       .  S
C641        C642   1.348       .  D
C641        H643   1.088       .  S
C642        H644   1.086       .  S
C645        C646   1.347       .  D
C645        H647   1.086       .  S
C646        H648   1.087       .  S
C649        C650   1.341       .  D
C649        H651   1.087       .  S
C650        H652   1.088       .  S
C653        C654   1.347       .  D
C653        H655   1.086       .  S
C654        H656   1.087       .  S
Fe657       O673   2.084       .  S
Fe657       O663   2.068       .  S
Fe657       O670   2.058       .  S
Fe657       O662   2.082       .  S
Fe657       O668   1.943       .  S
Fe658       O661   2.089       .  S
Fe658       O665   2.066       .  S
Fe658       O669   2.090       .  S
Fe658       O674   2.069       .  S
Fe658       O668   1.949       .  S
Fe659       O677   2.055       .  S
Fe659       O664   2.089       .  S
Fe659       O671   2.083       .  S
Fe659       O660   2.060       .  S
Fe659       O668   1.942       .  S
O660        C667   1.269       .  A
O661        C675   1.273       .  A
O662        C667   1.270       .  A
O663        C666   1.272       .  A
O664        C676   1.273       .  A
O665        C678   1.272       .  A
C666        O671   1.273       .  A
C666        C806   1.487       .  S
C667        C797   1.486       .  S
O669        C672   1.273       .  A
O670        C672   1.270       .  A
C672        C813   1.482       .  S
O673        C678   1.272       .  A
O674        C676   1.272       .  A
C675        O677   1.270       .  A
C675        C802   1.481       .  S
C676        C809   1.489       .  S
C678        C817   1.483       .  S
C679        C793   1.477       .  S
C679       N1008   1.359       .  A
C679        N684   1.356       .  A
N680       C1007   1.360   1_455  A
C681        C785   1.474       .  S
C681       N1174   1.361       .  A
N682       C1173   1.364       .  A
C683        C789   1.479   1_554  S
C683        N848   1.358       .  A
N684        C847   1.358       .  A
C685        C801   1.472       .  S
C685        N686   1.361       .  A
C685       N1018   1.366       .  A
N686       C1015   1.353       .  A
C687        C794   1.476       .  S
C687       N1014   1.348       .  A
C687        N852   1.354       .  A
N688        C851   1.354       .  A
N688        C689   1.361       .  A
C689        C782   1.475       .  S
C689        N854   1.366       .  A
N690       C1013   1.367       .  A
N690        C853   1.367       .  A
C691        C777   1.475       .  S
C691        N692   1.360       .  A
C691        N696   1.368   1_554  A
N692        C693   1.353   1_554  A
C693        C786   1.480       .  S
C693        N858   1.352       .  A
N694        C857   1.350       .  A
N694        C695   1.358       .  A
C695        C818   1.472       .  S
C695        N860   1.367       .  A
N696        C859   1.367       .  A
C697        C773   1.471       .  S
C697        N702   1.358       .  A
N698        C863   1.365   1_454  A
C699        C805   1.476       .  S
C699        N862   1.365   1_655  A
C699        N700   1.360   1_655  A
N700        C865   1.355       .  A
C701        C790   1.484       .  S
C701        N864   1.355   1_454  A
Fe703       O719   2.089       .  S
Fe703       O709   2.054       .  S
Fe703       O716   2.064       .  S
Fe703       O708   2.098       .  S
Fe703       O714   1.956       .  S
Fe704       O707   2.089       .  S
Fe704       O711   2.061       .  S
Fe704       O715   2.086       .  S
Fe704       O720   2.057       .  S
Fe704       O714   1.958       .  S
Fe705       O723   2.058       .  S
Fe705       O710   2.093       .  S
Fe705       O717   2.094       .  S
Fe705       O706   2.046       .  S
Fe705       O714   1.947       .  S
O706        C713   1.268       .  A
O707        C721   1.273       .  A
O708        C713   1.275       .  A
O709        C712   1.269       .  A
O710        C722   1.271       .  A
O711        C724   1.271       .  A
C712        O717   1.274       .  A
C712        C766   1.490       .  S
C713        C781   1.484       .  S
O715        C718   1.271       .  A
O716        C718   1.270       .  A
C718        C774   1.483       .  S
O719        C724   1.272       .  A
O720        C722   1.268       .  A
C721        O723   1.271       .  A
C721        C769   1.488       .  S
C722        C778   1.491       .  S
C724        C761   1.488       .  S
C725        C757   1.480       .  S
C725       N1054   1.359       .  A
N726       C1053   1.360       .  A
C727        C749   1.476       .  S
C727        N728   1.359       .  A
N728        C729   1.362   1_545  A
C729        C753   1.481       .  S
C729       N1058   1.362       .  A
N730       C1057   1.356       .  A
C731        C765   1.478       .  S
C731        N732   1.362       .  A
C731       N1064   1.366       .  A
N732       C1061   1.356       .  A
C733        C754   1.480       .  S
C733       N1060   1.354       .  A
C733        N734   1.352   1_565  A
N734        C735   1.359       .  A
C735        C810   1.476       .  S
C735        N736   1.367   1_545  A
N736       C1059   1.367       .  A
C737        C798   1.468       .  S
C737        N742   1.357       .  A
N738        C739   1.369       .  A
C739        C762   1.473       .  S
C739        N740   1.358       .  A
N740        C741   1.350       .  A
C741        C750   1.474       .  S
C743        C814   1.475       .  S
C743        N744   1.368       .  A
C743        N748   1.358       .  A
N744        C745   1.369       .  A
C745        C770   1.476       .  S
C745        N746   1.360       .  A
N746        C747   1.352       .  A
C747        C758   1.479       .  S
C747        N748   1.350       .  A
C749        C750   1.344       .  D
C749        H751   1.087       .  S
C753        C754   1.345       .  D
C753       H1083   1.087       .  S
C754        H756   1.087   1_565  S
H755       C1081   1.087       .  S
C757        C758   1.345       .  D
C757        H759   1.087       .  S
C758        H760   1.087       .  S
C761        C762   1.346       .  D
C761        H763   1.086       .  S
C762        H764   1.088       .  S
C765        C766   1.351       .  D
C765        H767   1.087       .  S
C766        H768   1.086       .  S
C769        C770   1.349       .  D
C769        H771   1.086       .  S
C770        H772   1.088       .  S
C773        C774   1.345       .  D
C773        H775   1.088       .  S
C774        H776   1.086       .  S
C777        C778   1.349       .  D
C777        H779   1.087       .  S
C778        H780   1.086       .  S
C781        C782   1.349       .  D
C781        H783   1.086       .  S
C782        H784   1.089       .  S
C785        C950   1.342       .  D
C785        H951   1.087       .  S
C786        C949   1.346       .  D
C786        H952   1.087       .  S
H787        C949   1.087   1_554  S
H788        C950   1.087       .  S
C789        C790   1.345   1_656  D
C789        H955   1.087       .  S
H791        C953   1.087       .  S
C793        C794   1.341       .  D
C793        H959   1.087       .  S
C794       H1124   1.087       .  S
H795        C957   1.087       .  S
H796       C1122   1.087       .  S
C797        C798   1.346       .  D
C797        H799   1.086       .  S
C798        H800   1.087       .  S
C801        C802   1.347       .  D
C801        H803   1.089       .  S
C802        H804   1.086       .  S
C805        C806   1.349       .  D
C805        H807   1.087       .  S
C806        H808   1.086       .  S
C809        C810   1.348       .  D
C809        H811   1.086       .  S
C810        H812   1.087       .  S
C813        C814   1.346       .  D
C813        H815   1.085       .  S
C814        H816   1.089       .  S
C817        C818   1.344       .  D
C817        H819   1.086       .  S
C818        H820   1.088       .  S
Fe821       O837   2.096       .  S
Fe821       O827   2.058       .  S
Fe821       O834   2.060       .  S
Fe821       O826   2.091       .  S
Fe821       O832   1.935       .  S
Fe822       O825   2.079       .  S
Fe822       O829   2.066       .  S
Fe822       O833   2.087       .  S
Fe822       O838   2.061       .  S
Fe822       O832   1.943       .  S
Fe823       O841   2.069       .  S
Fe823       O828   2.090       .  S
Fe823       O835   2.088       .  S
Fe823       O824   2.066       .  S
Fe823       O832   1.938       .  S
O824        C831   1.273       .  A
O825        C839   1.273       .  A
O826        C831   1.276       .  A
O827        C830   1.268       .  A
O828        C840   1.272       .  A
O829        C842   1.270       .  A
C830        O835   1.272       .  A
C830        C970   1.488       .  S
C831        C961   1.491       .  S
O833        C836   1.273       .  A
O834        C836   1.270       .  A
C836        C977   1.481       .  S
O837        C842   1.274       .  A
O838        C840   1.270       .  A
C839        O841   1.272       .  A
C839        C966   1.471       .  S
C840        C973   1.487       .  S
C842        C981   1.491       .  S
C843        C957   1.479       .  S
C843       N1172   1.359       .  A
C843        N848   1.356       .  A
N844       C1171   1.360   1_455  A
C845        C949   1.482       .  S
C845       N1010   1.364       .  A
N846       C1009   1.363       .  A
C847        C953   1.477       .  S
C849        C965   1.470       .  S
C849        N850   1.359       .  A
C849       N1182   1.365   1_556  A
N850       C1179   1.352   1_556  A
C851        C958   1.477       .  S
C851       N1178   1.349   1_554  A
N852        C853   1.363       .  A
C853        C946   1.475       .  S
N854       C1177   1.367   1_554  A
C855        C941   1.474       .  S
C855        N856   1.359       .  A
C855        N860   1.367       .  A
N856        C857   1.352       .  A
C857        C950   1.475       .  S
N858        C859   1.360       .  A
C859        C982   1.477       .  S
C861        C937   1.470       .  S
C861        N866   1.360       .  A
C863        C969   1.475       .  S
C863        N864   1.360       .  A
C865        C954   1.479       .  S
Fe867       O883   2.095       .  S
Fe867       O873   2.064       .  S
Fe867       O880   2.054       .  S
Fe867       O872   2.105       .  S
Fe867       O878   1.946       .  S
Fe868       O871   2.084       .  S
Fe868       O875   2.056       .  S
Fe868       O879   2.091       .  S
Fe868       O884   2.061       .  S
Fe868       O878   1.947       .  S
Fe869       O887   2.057       .  S
Fe869       O874   2.092       .  S
Fe869       O881   2.085       .  S
Fe869       O870   2.047       .  S
Fe869       O878   1.943       .  S
O870        C877   1.266       .  A
O871        C885   1.271       .  A
O872        C877   1.275       .  A
O873        C876   1.272       .  A
O874        C886   1.273       .  A
O875        C888   1.271       .  A
C876        O881   1.274       .  A
C876        C930   1.487       .  S
C877        C945   1.491       .  S
O879        C882   1.273       .  A
O880        C882   1.269       .  A
C882        C938   1.483       .  S
O883        C888   1.275       .  A
O884        C886   1.269       .  A
C885        O887   1.270       .  A
C885        C933   1.483       .  S
C886        C942   1.491       .  S
C888        C925   1.489       .  S
C889        C921   1.478       .  S
C889       N1218   1.359       .  A
N890       C1217   1.359       .  A
C891        C913   1.479       .  S
C891        N892   1.358       .  A
N892        C893   1.362   1_545  A
C893        C917   1.479       .  S
C893       N1222   1.362       .  A
N894       C1221   1.356       .  A
C895        C929   1.475       .  S
C895        N896   1.359       .  A
C895       N1228   1.364       .  A
N896       C1225   1.355       .  A
C897        C918   1.477       .  S
C897       N1224   1.353       .  A
C897        N898   1.351       .  A
N898        C899   1.358       .  A
C899        C974   1.474   1_565  S
C899        N900   1.366       .  A
N900       C1223   1.367       .  A
C901        C962   1.475       .  S
C901        N906   1.361       .  A
N902        C903   1.368       .  A
C903        C926   1.475       .  S
C903        N904   1.360       .  A
N904        C905   1.352       .  A
C905        C914   1.475       .  S
C907        C978   1.473       .  S
C907        N908   1.366       .  A
C907        N912   1.359       .  A
N908        C909   1.366       .  A
C909        C934   1.471       .  S
C909        N910   1.358       .  A
N910        C911   1.351       .  A
C911        C922   1.477       .  S
C911        N912   1.351       .  A
C913        C914   1.345       .  D
C913        H915   1.087       .  S
C917        C918   1.344       .  D
C917       H1247   1.087       .  S
C918        H920   1.087   1_565  S
H919       C1245   1.087       .  S
C921        C922   1.346       .  D
C921        H923   1.087       .  S
C922        H924   1.087       .  S
C925        C926   1.350       .  D
C925        H927   1.086       .  S
C926        H928   1.088       .  S
C929        C930   1.349       .  D
C929        H931   1.087       .  S
C930        H932   1.086       .  S
C933        C934   1.347       .  D
C933        H935   1.085       .  S
C934        H936   1.088       .  S
C937        C938   1.347       .  D
C937        H939   1.088       .  S
C938        H940   1.086       .  S
C941        C942   1.349       .  D
C941        H943   1.087       .  S
C942        H944   1.086       .  S
C945        C946   1.352       .  D
C945        H947   1.086       .  S
C946        H948   1.087       .  S
C953        C954   1.343   1_655  D
C957        C958   1.344       .  D
C958       H1288   1.087       .  S
H960       C1286   1.087   1_556  S
C961        C962   1.350       .  D
C961        H963   1.086       .  S
C962        H964   1.087       .  S
C965        C966   1.343       .  D
C965        H967   1.089       .  S
C966        H968   1.086       .  S
C969        C970   1.350       .  D
C969        H971   1.087       .  S
C970        H972   1.086       .  S
C973        C974   1.347       .  D
C973        H975   1.086       .  S
C974        H976   1.088       .  S
C977        C978   1.347       .  D
C977        H979   1.085       .  S
C978        H980   1.089       .  S
C981        C982   1.350       .  D
C981        H983   1.086       .  S
C982        H984   1.087       .  S
Fe985      O1001   2.092       .  S
Fe985       O991   2.060       .  S
Fe985       O998   2.077       .  S
Fe985       O990   2.095       .  S
Fe985       O996   1.933       .  S
Fe986       O989   2.076       .  S
Fe986       O993   2.062       .  S
Fe986       O997   2.076       .  S
Fe986      O1002   2.065       .  S
Fe986       O996   1.941       .  S
Fe987      O1005   2.083       .  S
Fe987       O992   2.083       .  S
Fe987       O999   2.088       .  S
Fe987       O988   2.063       .  S
Fe987       O996   1.933       .  S
O988        C995   1.271       .  A
O989       C1003   1.273       .  A
O990        C995   1.275       .  A
O991        C994   1.272       .  A
O992       C1004   1.268       .  A
O993       C1006   1.269       .  A
C994        O999   1.274       .  A
C994       C1134   1.487       .  S
C995       C1125   1.482       .  S
O997       C1000   1.273       .  A
O998       C1000   1.275       .  A
C1000      C1141   1.482       .  S
O1001      C1006   1.272       .  A
O1002      C1004   1.267       .  A
C1003      O1005   1.278       .  A
C1003      C1130   1.487       .  S
C1004      C1137   1.485       .  S
C1006      C1145   1.490       .  S
C1007      C1121   1.481       .  S
C1007      N1012   1.358   1_545  A
C1009      C1113   1.478       .  S
C1011      C1117   1.474       .  S
C1011      N1176   1.355   1_455  A
N1012      C1175   1.356   1_655  A
C1013      C1129   1.471       .  S
C1013      N1014   1.356       .  A
C1015      C1122   1.478   1_545  S
C1015      N1180   1.350   1_545  A
N1016      C1179   1.355       .  A
N1016      C1017   1.360   1_545  A
C1017      C1110   1.477       .  S
C1017      N1182   1.364   1_565  A
N1018      C1181   1.365   1_545  A
C1019      C1105   1.475       .  S
C1019      N1020   1.363       .  A
C1019      N1024   1.363       .  A
N1020      C1021   1.356       .  A
C1021      C1114   1.483       .  S
C1021      N1186   1.351   1_554  A
N1022      C1185   1.350       .  A
N1022      C1023   1.359       .  A
C1023      C1146   1.472       .  S
C1023      N1188   1.366       .  A
N1024      C1187   1.364   1_554  A
C1025      C1101   1.474       .  S
C1025      N1030   1.359       .  A
N1026      C1191   1.366   1_454  A
C1027      C1133   1.474       .  S
C1027      N1190   1.365       .  A
C1027      N1028   1.360   1_655  A
N1028      C1193   1.354       .  A
C1029      C1118   1.481       .  S
C1029      N1192   1.355       .  A
Fe1031     O1047   2.098       .  S
Fe1031     O1037   2.050       .  S
Fe1031     O1044   2.065       .  S
Fe1031     O1036   2.088       .  S
Fe1031     O1042   1.941       .  S
Fe1032     O1035   2.104       .  S
Fe1032     O1039   2.057       .  S
Fe1032     O1043   2.090       .  S
Fe1032     O1048   2.050       .  S
Fe1032     O1042   1.938       .  S
Fe1033     O1051   2.049       .  S
Fe1033     O1038   2.099       .  S
Fe1033     O1045   2.106       .  S
Fe1033     O1034   2.066       .  S
Fe1033     O1042   1.932       .  S
O1034      C1041   1.273       .  A
O1035      C1049   1.278       .  A
O1036      C1041   1.276       .  A
O1037      C1040   1.266       .  A
O1038      C1050   1.276       .  A
O1039      C1052   1.266       .  A
C1040      O1045   1.275       .  A
C1040      C1094   1.491       .  S
C1041      C1109   1.490       .  S
O1043      C1046   1.275       .  A
O1044      C1046   1.273       .  A
C1046      C1102   1.487       .  S
O1047      C1052   1.272       .  A
O1048      C1050   1.268       .  A
C1049      O1051   1.269       .  A
C1049      C1097   1.491       .  S
C1050      C1106   1.491       .  S
C1052      C1089   1.490       .  S
C1053      C1085   1.479       .  S
C1055      C1077   1.483       .  S
C1055      N1056   1.363       .  A
N1056      C1057   1.363       .  A
C1057      C1081   1.478       .  S
C1059      C1093   1.475       .  S
C1059      N1060   1.362       .  A
C1061      C1082   1.481       .  S
C1061      N1062   1.352       .  A
N1062      C1063   1.358       .  A
C1063      C1138   1.469       .  S
C1063      N1064   1.364       .  A
C1065      C1126   1.477       .  S
C1065      N1070   1.360       .  A
N1066      C1067   1.366       .  A
C1067      C1090   1.472       .  S
C1067      N1068   1.361       .  A
N1068      C1069   1.354       .  A
C1069      C1078   1.481       .  S
C1071      C1142   1.466       .  S
C1071      N1072   1.364       .  A
C1071      N1076   1.357       .  A
N1072      C1073   1.364       .  A
C1073      C1098   1.473       .  S
C1073      N1074   1.362       .  A
N1074      C1075   1.354       .  A
C1075      C1086   1.477       .  S
C1075      N1076   1.351       .  A
C1077      C1078   1.346       .  D
C1077      H1079   1.087       .  S
C1081      C1082   1.343       .  D
C1082      H1084   1.087       .  S
C1085      C1086   1.344       .  D
C1085      H1087   1.087       .  S
C1086      H1088   1.087       .  S
C1089      C1090   1.350       .  D
C1089      H1091   1.086       .  S
C1090      H1092   1.087       .  S
C1093      C1094   1.351       .  D
C1093      H1095   1.087       .  S
C1094      H1096   1.086       .  S
C1097      C1098   1.353       .  D
C1097      H1099   1.086       .  S
C1098      H1100   1.087       .  S
C1101      C1102   1.349       .  D
C1101      H1103   1.088       .  S
C1102      H1104   1.086       .  S
C1105      C1106   1.355       .  D
C1105      H1107   1.086       .  S
C1106      H1108   1.086       .  S
C1109      C1110   1.350       .  D
C1109      H1111   1.085       .  S
C1110      H1112   1.086       .  S
C1113      C1278   1.343       .  D
C1113      H1279   1.087       .  S
C1114      C1277   1.343       .  D
C1114      H1280   1.087       .  S
H1115      C1277   1.087       .  S
H1116      C1278   1.087       .  S
C1117      C1118   1.342       .  D
C1117      H1283   1.087   1_455  S
H1119      C1281   1.087   1_655  S
C1121      C1122   1.346   1_545  D
C1121      H1287   1.087       .  S
H1123      C1285   1.087   1_565  S
C1125      C1126   1.346       .  D
C1125      H1127   1.086       .  S
C1126      H1128   1.089       .  S
C1129      C1130   1.344       .  D
C1129      H1131   1.087       .  S
C1130      H1132   1.086       .  S
C1133      C1134   1.349       .  D
C1133      H1135   1.087       .  S
C1134      H1136   1.086       .  S
C1137      C1138   1.345       .  D
C1137      H1139   1.087       .  S
C1138      H1140   1.087       .  S
C1141      C1142   1.344       .  D
C1141      H1143   1.086       .  S
C1142      H1144   1.087       .  S
C1145      C1146   1.349       .  D
C1145      H1147   1.086       .  S
C1146      H1148   1.087       .  S
Fe1149     O1165   2.084       .  S
Fe1149     O1155   2.062       .  S
Fe1149     O1162   2.063       .  S
Fe1149     O1154   2.094       .  S
Fe1149     O1160   1.936       .  S
Fe1150     O1153   2.074       .  S
Fe1150     O1157   2.066       .  S
Fe1150     O1161   2.081       .  S
Fe1150     O1166   2.056       .  S
Fe1150     O1160   1.942       .  S
Fe1151     O1169   2.070       .  S
Fe1151     O1156   2.087       .  S
Fe1151     O1163   2.083       .  S
Fe1151     O1152   2.068       .  S
Fe1151     O1160   1.930       .  S
O1152      C1159   1.275       .  A
O1153      C1167   1.272       .  A
O1154      C1159   1.279       .  A
O1155      C1158   1.268       .  A
O1156      C1168   1.271       .  A
O1157      C1170   1.273       .  A
C1158      O1163   1.269       .  A
C1158      C1298   1.486       .  S
C1159      C1289   1.489       .  S
O1161      C1164   1.270       .  A
O1162      C1164   1.265       .  A
C1164      C1305   1.467       .  S
O1165      C1170   1.275       .  A
O1166      C1168   1.268       .  A
C1167      O1169   1.275       .  A
C1167      C1294   1.477       .  S
C1168      C1301   1.482       .  S
C1170      C1309   1.480       .  S
C1171      C1285   1.477       .  S
C1171      N1176   1.354   1_544  A
C1173      C1277   1.480       .  S
C1175      C1281   1.476       .  S
C1177      C1293   1.469       .  S
C1177      N1178   1.356       .  A
C1179      C1286   1.480       .  S
N1180      C1181   1.358       .  A
C1181      C1274   1.471       .  S
C1183      C1269   1.475       .  S
C1183      N1184   1.361       .  A
C1183      N1188   1.367       .  A
N1184      C1185   1.354       .  A
C1185      C1278   1.481       .  S
N1186      C1187   1.359       .  A
C1187      C1310   1.469       .  S
C1189      C1265   1.469       .  S
C1189      N1194   1.357       .  A
C1191      C1297   1.475       .  S
C1191      N1192   1.360   1_655  A
C1193      C1282   1.477       .  S
Fe1195     O1211   2.088       .  S
Fe1195     O1201   2.056       .  S
Fe1195     O1208   2.064       .  S
Fe1195     O1200   2.082       .  S
Fe1195     O1206   1.941       .  S
Fe1196     O1199   2.089       .  S
Fe1196     O1203   2.073       .  S
Fe1196     O1207   2.081       .  S
Fe1196     O1212   2.058       .  S
Fe1196     O1206   1.931       .  S
Fe1197     O1215   2.049       .  S
Fe1197     O1202   2.093       .  S
Fe1197     O1209   2.100       .  S
Fe1197     O1198   2.069       .  S
Fe1197     O1206   1.927       .  S
O1198      C1205   1.276       .  A
O1199      C1213   1.274       .  A
O1200      C1205   1.276       .  A
O1201      C1204   1.264       .  A
O1202      C1214   1.276       .  A
O1203      C1216   1.274       .  A
C1204      O1209   1.271       .  A
C1204      C1258   1.489       .  S
C1205      C1273   1.482       .  S
O1207      C1210   1.270       .  A
O1208      C1210   1.269       .  A
C1210      C1266   1.485       .  S
O1211      C1216   1.275       .  A
O1212      C1214   1.272       .  A
C1213      O1215   1.269       .  A
C1213      C1261   1.484       .  S
C1214      C1270   1.490       .  S
C1216      C1253   1.488       .  S
C1217      C1249   1.476       .  S
C1219      C1241   1.480       .  S
C1219      N1220   1.364       .  A
N1220      C1221   1.363       .  A
C1221      C1245   1.477       .  S
C1223      C1257   1.473       .  S
C1223      N1224   1.361       .  A
C1225      C1246   1.482       .  S
C1225      N1226   1.353       .  A
N1226      C1227   1.360       .  A
C1227      C1302   1.468       .  S
C1227      N1228   1.364       .  A
C1229      C1290   1.472       .  S
C1229      N1234   1.360       .  A
N1230      C1231   1.366       .  A
C1231      C1254   1.470       .  S
C1231      N1232   1.360       .  A
N1232      C1233   1.353       .  A
C1233      C1242   1.477       .  S
C1235      C1306   1.473       .  S
C1235      N1236   1.362       .  A
C1235      N1240   1.362       .  A
N1236      C1237   1.362       .  A
C1237      C1262   1.465       .  S
C1237      N1238   1.358       .  A
N1238      C1239   1.352       .  A
C1239      C1250   1.476       .  S
C1239      N1240   1.352       .  A
C1241      C1242   1.345       .  D
C1241      H1243   1.087       .  S
C1245      C1246   1.344       .  D
C1246      H1248   1.087       .  S
C1249      C1250   1.344       .  D
C1249      H1251   1.087       .  S
C1250      H1252   1.087       .  S
C1253      C1254   1.348       .  D
C1253      H1255   1.086       .  S
C1254      H1256   1.087       .  S
C1257      C1258   1.350       .  D
C1257      H1259   1.087       .  S
C1258      H1260   1.086       .  S
C1261      C1262   1.348       .  D
C1261      H1263   1.086       .  S
C1262      H1264   1.087       .  S
C1265      C1266   1.346       .  D
C1265      H1267   1.087       .  S
C1266      H1268   1.086       .  S
C1269      C1270   1.350       .  D
C1269      H1271   1.087       .  S
C1270      H1272   1.086       .  S
C1273      C1274   1.346       .  D
C1273      H1275   1.086       .  S
C1274      H1276   1.089       .  S
C1281      C1282   1.342       .  D
C1285      C1286   1.343       .  D
C1289      C1290   1.349       .  D
C1289      H1291   1.086       .  S
C1290      H1292   1.087       .  S
C1293      C1294   1.343       .  D
C1293      H1295   1.089       .  S
C1294      H1296   1.086       .  S
C1297      C1298   1.348       .  D
C1297      H1299   1.087       .  S
C1298      H1300   1.086       .  S
C1301      C1302   1.344       .  D
C1301      H1303   1.086       .  S
C1302      H1304   1.087       .  S
C1305      C1306   1.339       .  D
C1305      H1307   1.089       .  S
C1306      H1308   1.086       .  S
C1309      C1310   1.347       .  D
C1309      H1311   1.086       .  S
C1310      H1312   1.088       .  S
