geometry optimzed in LAMMPS
_audit_creation_date              2020-12-01 
_audit_creation_method            'lammps2cif' 
_symmetry_space_group_name_H-M    'P1' 
_symmetry_Int_Tables_number       1 
_symmetry_cell_setting            triclinic 
loop_ 
_symmetry_equiv_pos_as_xyz 
  x,y,z 
_cell_length_a                    29.36142305 
_cell_length_b                    29.671522351110767 
_cell_length_c                    29.51187038991924 
_cell_angle_alpha                 89.83122294348087 
_cell_angle_beta                  89.92938621541839 
_cell_angle_gamma                 90.0139631360916 
loop_ 
_atom_site_label 
_atom_site_type_symbol 
_atom_site_fract_x 
_atom_site_fract_y 
_atom_site_fract_z 
_atom_site_charge 
N1          N  0.60542209  0.55480251  0.92287213    -0.07000
N2          N  0.63114494  0.55746048  0.88627981    -0.59200
N3          N  0.57493947  0.58876870  0.02733251    -0.06700
N4          N  0.57879924  0.61558257  0.06271279    -0.59800
N5          N  0.60687942  0.55772249  0.02789513    -0.06300
N6          N  0.63348077  0.56301186  0.06354603    -0.59100
N7          N  0.57345704  0.58580808  0.92192568    -0.06000
N8          N  0.57657330  0.61009855  0.88445863    -0.61600
C9          C  0.61294323  0.59223785  0.86281467     0.95100
C10         C  0.61529582  0.59902307  0.08504658     0.94900
N11         N  0.43816189  0.55714803  0.03092412    -0.07200
N12         N  0.41375709  0.56135994  0.06830665    -0.59700
N13         N  0.46764973  0.58634774  0.92439731    -0.05300
N14         N  0.46400405  0.61112661  0.88744509    -0.61000
N15         N  0.43617139  0.55483537  0.92522995    -0.07200
N16         N  0.41063873  0.55717943  0.88846750    -0.60000
N17         N  0.46959241  0.58867175  0.02896588    -0.05000
N18         N  0.46710953  0.61516525  0.06467691    -0.61100
Mn19       Mn  0.52139647  0.58926280  0.97554472     1.18400
C20         C  0.43196587  0.59794636  0.08869532     0.97200
C21         C  0.42851090  0.59244323  0.86537130     0.97900
N22         N  0.60631779  0.45247556  0.03118237    -0.07300
N23         N  0.63144602  0.45036540  0.06828610    -0.63600
N24         N  0.57297892  0.41880173  0.92668658    -0.06100
N25         N  0.57382933  0.39395145  0.88971038    -0.64300
N26         N  0.60429007  0.45045606  0.92480996    -0.06800
N27         N  0.62678554  0.44812391  0.88607148    -0.63800
N28         N  0.57509530  0.42067429  0.03168406    -0.05700
N29         N  0.57862374  0.39594017  0.06875230    -0.64500
Mn30       Mn  0.60785783  0.50372636  0.97679041     1.10700
C31         C  0.61399998  0.41467188  0.09107396     0.98400
C32         C  0.60737206  0.41272199  0.86469662     0.98500
N33         N  0.43551570  0.45012289  0.92813571    -0.06800
N34         N  0.40901396  0.44590708  0.89228831    -0.62200
N35         N  0.46922412  0.42116997  0.03340454    -0.06100
N36         N  0.46544464  0.39577068  0.07000704    -0.58900
N37         N  0.43730692  0.45224184  0.03279611    -0.07400
N38         N  0.41083909  0.44849053  0.06873278    -0.61700
N39         N  0.46746246  0.41906580  0.92803040    -0.06400
N40         N  0.46362674  0.39327986  0.89183442    -0.58900
Mn41       Mn  0.43476423  0.50365557  0.97935342     1.20200
Mn42       Mn  0.52128763  0.41797441  0.98006618     1.10100
Cl43       Cl  0.52133324  0.50364878  0.97799113    -0.86900
C44         C  0.42712043  0.41049954  0.86987910     0.95500
C45         C  0.42878704  0.41313410  0.09146359     0.95300
N46         N  0.47482349  0.95123434  0.39360934    -0.07000
N47         N  0.47007659  0.91590472  0.36676068    -0.59200
N48         N  0.44157152  0.05525387  0.42597491    -0.06700
N49         N  0.41427706  0.09026990  0.42143122    -0.61300
N50         N  0.47334170  0.05577690  0.39452869    -0.06300
N51         N  0.46829685  0.09118784  0.36785747    -0.59100
N52         N  0.44238896  0.95155180  0.42442940    -0.06000
N53         N  0.41478514  0.91690098  0.41903800    -0.61600
C54         C  0.43220363  0.89511593  0.38285457     0.95100
C55         C  0.43153942  0.11250255  0.38523969     0.94900
N56         N  0.47101687  0.05341784  0.56373655    -0.07200
N57         N  0.46397409  0.08621209  0.59292492    -0.59700
N58         N  0.44159148  0.94978813  0.53029261    -0.05300
N59         N  0.41439205  0.91467574  0.53491989    -0.61000
N60         N  0.47265963  0.95002738  0.56235583    -0.07200
N61         N  0.46708568  0.91518466  0.58970983    -0.60000
N62         N  0.43928084  0.05330136  0.53236166    -0.05000
N63         N  0.40963748  0.08594932  0.53972448    -0.61100
Mn64       Mn  0.43965709  0.00255899  0.47809884     1.18400
C65         C  0.42545478  0.10595440  0.57774714     0.97200
C66         C  0.43045386  0.89366135  0.57232615     0.97900
N67         N  0.57982085  0.05814939  0.39578132    -0.07300
N68         N  0.58310368  0.09468542  0.37034538    -0.63600
N69         N  0.61359359  0.95401332  0.42614849    -0.06100
N70         N  0.64265990  0.92062032  0.42004487    -0.64300
N71         N  0.58266517  0.95426271  0.39390488    -0.06800
N72         N  0.59034926  0.92139755  0.36484141    -0.63800
N73         N  0.61163401  0.05806846  0.42716720    -0.05700
N74         N  0.63748843  0.09437238  0.42343845    -0.64500
Mn75       Mn  0.52765024  0.00469983  0.39268232     1.10700
C76         C  0.61945441  0.11667160  0.38764301     0.98400
C77         C  0.62788507  0.90089001  0.38153867     0.98500
N78         N  0.57905452  0.95163819  0.56317397    -0.06800
N79         N  0.58270931  0.91548218  0.58904345    -0.62200
N80         N  0.60996109  0.05682607  0.53319432    -0.06100
N81         N  0.63556202  0.09313065  0.53756443    -0.58900
N82         N  0.57729857  0.05657269  0.56375762    -0.07400
N83         N  0.57967832  0.09304796  0.58926040    -0.61700
N84         N  0.61166748  0.95251087  0.53258794    -0.06400
N85         N  0.63855305  0.91712437  0.53731811    -0.58900
Mn86       Mn  0.52522292  0.00292128  0.56488540     1.20200
Mn87       Mn  0.61350520  0.00524734  0.47991273     1.10100
Cl88       Cl  0.52651892  0.00378636  0.47884791    -0.86900
C89         C  0.62015239  0.89457646  0.57282266     0.95500
C90         C  0.61639552  0.11522895  0.57272898     0.95300
N91         N  0.96958598  0.55236170  0.39016762    -0.07000
N92         N  0.93285211  0.55613720  0.36469278    -0.59200
N93         N  0.07575241  0.58242211  0.41895737    -0.06700
N94         N  0.11169887  0.60851643  0.41369593    -0.61300
N95         N  0.07573580  0.54987336  0.38879025    -0.06300
N96         N  0.11212853  0.55296922  0.36247618    -0.59100
N97         N  0.97084561  0.58466006  0.42049481    -0.06000
N98         N  0.93535647  0.61151956  0.41603363    -0.61600
C99         C  0.91188204  0.59306600  0.38138988     0.95100
C100        C  0.13414897  0.58974053  0.37858562     0.94900
N101        N  0.07731838  0.55425544  0.55655907    -0.07200
N102        N  0.11384619  0.55826856  0.58215836    -0.59700
N103        N  0.97186538  0.58702271  0.52588611    -0.05300
N104        N  0.93517713  0.61259629  0.52871003    -0.61000
N105        N  0.97211435  0.55685779  0.55861208    -0.07200
N106        N  0.93579082  0.56139759  0.58454328    -0.60000
N107        N  0.07759416  0.58472941  0.52413437    -0.05000
N108        N  0.11448762  0.61000994  0.52681358    -0.61100
Mn109      Mn  0.02401423  0.58655676  0.47235662     1.18400
C110        C  0.13683964  0.59292385  0.56302382     0.97200
C111        C  0.91301393  0.59612300  0.56539845     0.97900
N112        N  0.07072254  0.44396150  0.39093847    -0.07300
N113        N  0.10373420  0.43565720  0.36184066    -0.63600
N114        N  0.96504659  0.41832090  0.42627173    -0.06100
N115        N  0.92652127  0.39536494  0.42431442    -0.64300
N116        N  0.96653085  0.44861107  0.39367154    -0.06800
N117        N  0.92935017  0.44688801  0.36885496    -0.63800
N118        N  0.07017265  0.41345163  0.42332922    -0.05700
N119        N  0.10307860  0.38384917  0.41717982    -0.64500
Mn120      Mn  0.02094951  0.49869763  0.38907041     1.10700
C121        C  0.12333887  0.39791342  0.37848221     0.98400
C122        C  0.90494477  0.41331261  0.38796408     0.98500
N123        N  0.96918753  0.45228915  0.56218826    -0.06800
N124        N  0.93302151  0.45037449  0.58878240    -0.62200
N125        N  0.07353522  0.41683817  0.52938706    -0.06100
N126        N  0.10848988  0.38923967  0.53454722    -0.58900
N127        N  0.07470512  0.44893437  0.56003193    -0.07400
N128        N  0.11028087  0.44373523  0.58680951    -0.61700
N129        N  0.96804468  0.41978387  0.53204400    -0.06400
N130        N  0.93131644  0.39474964  0.53770234    -0.58900
Mn131      Mn  0.02347095  0.50318512  0.56119676     1.20200
Mn132      Mn  0.01924020  0.41520365  0.47785352     1.10100
Cl133      Cl  0.02209874  0.50085379  0.47511396    -0.86900
C134        C  0.90977490  0.41434862  0.57302069     0.95500
C135        C  0.13086418  0.40625619  0.57074583     0.95300
C136        C  0.72688199  0.35711976  0.32818709     0.02200
C137        C  0.70536828  0.37588880  0.29004654    -0.13900
C138        C  0.66884545  0.35376747  0.26906336    -0.00300
C139        C  0.65297482  0.31289551  0.28747234    -0.12500
C140        C  0.67358530  0.29407489  0.32611611     0.02200
C141        C  0.71082280  0.31612133  0.34577933    -0.11900
H142        H  0.71875536  0.40654959  0.27509051     0.07800
H143        H  0.62559020  0.29489484  0.27074153     0.05300
H144        H  0.72846293  0.30028012  0.37390850     0.05200
C145        C  0.75308480  0.67603973  0.30295511     0.02200
C146        C  0.73184009  0.65763990  0.26480161    -0.13900
C147        C  0.69478773  0.67960400  0.24437637    -0.00300
C148        C  0.67740352  0.71902842  0.26418304    -0.12500
C149        C  0.69720763  0.73667576  0.30363570     0.02200
C150        C  0.73526635  0.71524168  0.32253782    -0.11900
H151        H  0.74500700  0.62678907  0.25021289     0.07800
H152        H  0.64859418  0.73606831  0.24885319     0.05300
H153        H  0.75130783  0.72933920  0.35242890     0.05200
C154        C  0.67572713  0.34525429  0.69485088     0.02200
C155        C  0.71653835  0.36410101  0.67878412    -0.13900
C156        C  0.73921834  0.34505111  0.64158711    -0.00300
C157        C  0.71981238  0.30781116  0.61952725    -0.12500
C158        C  0.67900383  0.28871452  0.63519407     0.02200
C159        C  0.65672371  0.30808959  0.67241266    -0.11900
H160        H  0.73184789  0.39211616  0.69668179     0.07800
H161        H  0.73709796  0.29288738  0.59077580     0.05300
H162        H  0.62580246  0.29281645  0.68541332     0.05200
C163        C  0.36265605  0.72434751  0.31803993     0.02200
C164        C  0.32232662  0.70479522  0.33489346    -0.13900
C165        C  0.30241808  0.66759633  0.31298193    -0.00300
C166        C  0.32402771  0.64909403  0.27499902    -0.12500
C167        C  0.36494206  0.66724088  0.25860272     0.02200
C168        C  0.38345963  0.70540596  0.27966760    -0.11900
H169        H  0.30600912  0.71900680  0.36453893     0.07800
H170        H  0.30822188  0.62122449  0.25735198     0.05300
H171        H  0.41368214  0.72096655  0.26550938     0.05200
C172        C  0.36096589  0.72389159  0.63955109     0.02200
C173        C  0.31955797  0.70688719  0.62324565    -0.13900
C174        C  0.30137183  0.66655817  0.64040978    -0.00300
C175        C  0.32416254  0.64419688  0.67571560    -0.12500
C176        C  0.36298842  0.66323617  0.69543030     0.02200
C177        C  0.38251822  0.70175660  0.67573399    -0.11900
H178        H  0.30114032  0.72536558  0.59728241     0.07800
H179        H  0.31051488  0.61304674  0.68934502     0.05300
H180        H  0.41377870  0.71541593  0.68974837     0.05200
C181        C  0.35189129  0.33090928  0.70801268     0.02200
C182        C  0.31685716  0.35229864  0.68394274    -0.13900
C183        C  0.29651482  0.33144378  0.64640165    -0.00300
C184        C  0.31362002  0.28984544  0.63154695    -0.12500
C185        C  0.35100325  0.26959886  0.65317742     0.02200
C186        C  0.36886115  0.28958173  0.69244280    -0.11900
H187        H  0.30455127  0.38480472  0.69528267     0.07800
H188        H  0.29783221  0.27312688  0.60288793     0.05300
H189        H  0.39581628  0.27287597  0.71105543     0.05200
C190        C  0.68044842  0.65926511  0.69128061     0.02200
C191        C  0.71947553  0.64061694  0.67115899    -0.13900
C192        C  0.74250616  0.66342748  0.63631154    -0.00300
C193        C  0.72387724  0.70332178  0.61881539    -0.12500
C194        C  0.68396087  0.72173114  0.63728628     0.02200
C195        C  0.66312449  0.70015179  0.67437587    -0.11900
H196        H  0.73302917  0.60904102  0.68393869     0.07800
H197        H  0.74115785  0.72075910  0.59140005     0.05300
H198        H  0.63433353  0.71597403  0.69097830     0.05200
C199        C  0.35205076  0.27230139  0.30595806     0.02200
C200        C  0.37518218  0.29796572  0.27309772    -0.13900
C201        C  0.35588041  0.33789032  0.25615093    -0.00300
C202        C  0.31466337  0.35340298  0.27424266    -0.12500
C203        C  0.29169632  0.32849755  0.30747787     0.02200
C204        C  0.30977870  0.28729882  0.32202586    -0.11900
H205        H  0.40747278  0.28636366  0.25991910     0.07800
H206        H  0.30016183  0.38477485  0.26195157     0.05300
H207        H  0.29108612  0.26705273  0.34636435     0.05200
C208        C  0.25514917  0.35164436  0.62549214    -0.07000
C209        C  0.22023697  0.36635164  0.65448556    -0.18200
C210        C  0.17946283  0.38374998  0.63761479     0.10200
C211        C  0.17262793  0.38645159  0.59032930    -0.07000
C212        C  0.20715797  0.37142277  0.56111908    -0.18200
C213        C  0.24864165  0.35514138  0.57803642     0.10200
S214        S  0.13682325  0.39995422  0.67844066    -0.33200
S215        S  0.29257752  0.34223250  0.53734049    -0.33200
H216        H  0.32911355  0.35535301  0.56511818     0.28200
H217        H  0.09985232  0.38300262  0.65345080     0.28200
H218        H  0.22423518  0.36322649  0.69092043     0.18800
H219        H  0.20251008  0.37414469  0.52467209     0.18800
C220        C  0.17969333  0.61103654  0.58136433    -0.07000
C221        C  0.18428350  0.61272534  0.62859279    -0.18200
C222        C  0.22245973  0.63214041  0.64881000     0.10200
C223        C  0.25852933  0.64817987  0.62126032    -0.07000
C224        C  0.25404195  0.64606708  0.57384246    -0.18200
C225        C  0.21511244  0.62786685  0.55364135     0.10200
S226        S  0.22097188  0.63812335  0.70963800    -0.33200
S227        S  0.21385588  0.62549381  0.49255970    -0.33200
H228        H  0.19275712  0.58298178  0.49041891     0.28200
H229        H  0.24415059  0.67960786  0.71040265     0.28200
H230        H  0.15691645  0.60069031  0.65001345     0.18800
H231        H  0.28144236  0.65780352  0.55234681     0.18800
C232        C  0.25862046  0.64802746  0.32881999    -0.07000
C233        C  0.25631141  0.60140195  0.33743853    -0.18200
C234        C  0.21618539  0.58121958  0.35336260     0.10200
C235        C  0.17719722  0.60807865  0.36060826    -0.07000
C236        C  0.17936879  0.65448846  0.35178168    -0.18200
C237        C  0.21909909  0.67452940  0.33504292     0.10200
S238        S  0.21768370  0.52170065  0.36592968    -0.33200
S239        S  0.21617419  0.73347157  0.32016524    -0.33200
H240        H  0.24583990  0.73051635  0.28283317     0.28200
H241        H  0.18979613  0.52423533  0.40462885     0.28200
H242        H  0.28633070  0.58073634  0.33273804     0.18800
H243        H  0.14938588  0.67515731  0.35682664     0.18800
C244        C  0.24829913  0.34525213  0.32630068    -0.07000
C245        C  0.21366877  0.35821334  0.29620938    -0.18200
C246        C  0.17186088  0.37404793  0.31214799     0.10200
C247        C  0.16439298  0.37714793  0.35930876    -0.07000
C248        C  0.19846208  0.36310481  0.38937095    -0.18200
C249        C  0.24058925  0.34823069  0.37349116     0.10200
S250        S  0.12913047  0.38825558  0.27065767    -0.33200
S251        S  0.28388168  0.33670239  0.41523308    -0.33200
H252        H  0.32035475  0.35329303  0.38912063     0.28200
H253        H  0.09207095  0.37294989  0.29676157     0.28200
H254        H  0.21903674  0.35540750  0.25995478     0.18800
H255        H  0.19315739  0.36606889  0.42562081     0.18800
C256        C  0.78668397  0.64646064  0.61876959    -0.07000
C257        C  0.79238990  0.64212444  0.57169243    -0.18200
C258        C  0.83291377  0.62543271  0.55322031     0.10200
C259        C  0.86896277  0.61295049  0.58233257    -0.07000
C260        C  0.86325692  0.61696950  0.62929800    -0.18200
C261        C  0.82318611  0.63453360  0.64776445     0.10200
S262        S  0.83536111  0.61876544  0.49253831    -0.33200
S263        S  0.82234625  0.64334593  0.70824219    -0.33200
H264        H  0.79626945  0.68307350  0.70656326     0.28200
H265        H  0.85891104  0.57748687  0.49381048     0.28200
H266        H  0.76469956  0.65081703  0.54918753     0.18800
H267        H  0.89093923  0.60798367  0.65174623     0.18800
C268        C  0.78404799  0.36296096  0.62678212    -0.07000
C269        C  0.78812990  0.40914492  0.61680573    -0.18200
C270        C  0.82871340  0.42703243  0.59932178     0.10200
C271        C  0.86617709  0.39816551  0.59159931    -0.07000
C272        C  0.86237927  0.35228547  0.60221905    -0.18200
C273        C  0.82237905  0.33466084  0.62087344     0.10200
S274        S  0.82965277  0.48634104  0.58557562    -0.33200
S275        S  0.82350318  0.27642489  0.63864843    -0.33200
H276        H  0.79382106  0.28209101  0.67565608     0.28200
H277        H  0.85702875  0.48206922  0.54668060     0.28200
H278        H  0.75911216  0.43113546  0.62133979     0.18800
H279        H  0.89135894  0.33026337  0.59733011     0.18800
C280        C  0.85928046  0.40000072  0.37241201    -0.07000
C281        C  0.82549090  0.39067428  0.40477000    -0.18200
C282        C  0.78096146  0.37999989  0.39163249     0.10200
C283        C  0.77038486  0.37633571  0.34497057    -0.07000
C284        C  0.80410646  0.38684966  0.31284817    -0.18200
C285        C  0.84806296  0.39875710  0.32593315     0.10200
S286        S  0.73907071  0.37351887  0.43597476    -0.33200
S287        S  0.88874725  0.40931473  0.28132293    -0.33200
H288        H  0.92465973  0.38616237  0.30265072     0.28200
H289        H  0.70174357  0.38733940  0.40953257     0.28200
H290        H  0.83344796  0.39312666  0.44049723     0.18800
H291        H  0.79689824  0.38370064  0.27701165     0.18800
C292        C  0.87041343  0.61295868  0.36223122    -0.07000
C293        C  0.87191095  0.65855894  0.35008426    -0.18200
C294        C  0.83498447  0.67928516  0.32888354     0.10200
C295        C  0.79440351  0.65464449  0.32190337    -0.07000
C296        C  0.79290357  0.60882142  0.33407096    -0.18200
C297        C  0.83052076  0.58768190  0.35406684     0.10200
S298        S  0.84304919  0.73630659  0.30905905    -0.33200
S299        S  0.82481146  0.52908835  0.36971683    -0.33200
H300        H  0.85311406  0.53123903  0.40805507     0.28200
H301        H  0.81566455  0.73174132  0.27025570     0.28200
H302        H  0.90283497  0.67768210  0.35535794     0.18800
H303        H  0.76203502  0.58971464  0.32881770     0.18800
C304        C  0.63252544  0.15912670  0.58947993    -0.07000
C305        C  0.60283815  0.19615472  0.58811977    -0.18200
C306        C  0.61767103  0.23932001  0.60044877     0.10200
C307        C  0.66266026  0.24538271  0.61632270    -0.07000
C308        C  0.69227921  0.20823920  0.61744502    -0.18200
C309        C  0.67776555  0.16536721  0.60423296     0.10200
S310        S  0.57846553  0.28553284  0.59309261    -0.33200
S311        S  0.71809254  0.11970924  0.60855151    -0.33200
H312        H  0.68595877  0.08628457  0.61964983     0.28200
H313        H  0.61188680  0.31841775  0.58438220     0.28200
H314        H  0.56831538  0.19170009  0.57581483     0.18800
H315        H  0.72674259  0.21241394  0.63002746     0.18800
C316        C  0.37079961  0.22733676  0.63482818    -0.07000
C317        C  0.34136845  0.19175827  0.62327054    -0.18200
C318        C  0.35810208  0.15146971  0.60520242     0.10200
C319        C  0.40540826  0.14626751  0.59866233    -0.07000
C320        C  0.43493125  0.18117046  0.61113193    -0.18200
C321        C  0.41823432  0.22189131  0.62795402     0.10200
S322        S  0.31754109  0.10758915  0.59275787    -0.33200
S323        S  0.45923557  0.26629914  0.63666799    -0.33200
H324        H  0.43054292  0.30119852  0.62159946     0.28200
H325        H  0.34620364  0.07175335  0.60548483     0.28200
H326        H  0.30509237  0.19513797  0.62884889     0.18800
H327        H  0.47121018  0.17753560  0.60564513     0.18800
C328        C  0.41208834  0.15411681  0.36600625    -0.07000
C329        C  0.41144243  0.15889366  0.31869776    -0.18200
C330        C  0.39070195  0.19602038  0.29800866     0.10200
C331        C  0.37225272  0.23067831  0.32520685    -0.07000
C332        C  0.37334616  0.22600097  0.37262207    -0.18200
C333        C  0.39275826  0.18820311  0.39325121     0.10200
S334        S  0.38614357  0.19523645  0.23706319    -0.33200
S335        S  0.39312635  0.18661618  0.45438013    -0.33200
H336        H  0.43727072  0.16852418  0.45787512     0.28200
H337        H  0.34358416  0.21693290  0.23535303     0.28200
H338        H  0.42534694  0.13247204  0.29758815     0.18800
H339        H  0.35968267  0.25240709  0.39384926     0.18800
C340        C  0.65917986  0.24933440  0.34368639    -0.07000
C341        C  0.69218401  0.21526393  0.34821605    -0.18200
C342        C  0.68036264  0.17174304  0.36244077     0.10200
C343        C  0.63438184  0.16162184  0.37211143    -0.07000
C344        C  0.60143951  0.19564881  0.36797593    -0.18200
C345        C  0.61345243  0.23950723  0.35500590     0.10200
S346        S  0.72527162  0.13041795  0.36582296    -0.33200
S347        S  0.56927864  0.28174202  0.35589649    -0.33200
H348        H  0.59794646  0.31770964  0.36806317     0.28200
H349        H  0.69842999  0.09363320  0.35220586     0.28200
H350        H  0.72731473  0.22231200  0.33958803     0.18800
H351        H  0.56632192  0.18838595  0.37639551     0.18800
C352        C  0.41167263  0.85116654  0.59030601    -0.07000
C353        C  0.39901470  0.81759525  0.55945135    -0.18200
C354        C  0.38401208  0.77532987  0.57431078     0.10200
C355        C  0.37979870  0.76671707  0.62136689    -0.07000
C356        C  0.39197863  0.80069127  0.65215102    -0.18200
C357        C  0.40759905  0.84268039  0.63721813     0.10200
S358        S  0.37318890  0.73346702  0.53139869    -0.33200
S359        S  0.41929920  0.88468314  0.67966532    -0.33200
H360        H  0.40202356  0.92103301  0.65424306     0.28200
H361        H  0.38751363  0.69649454  0.55767907     0.28200
H362        H  0.40252211  0.82373569  0.52335292     0.18800
H363        H  0.38799933  0.79497900  0.68825646     0.18800
C364        C  0.63694197  0.85107451  0.59006242    -0.07000
C365        C  0.60601680  0.81524636  0.59420780    -0.18200
C366        C  0.62050081  0.77236070  0.60789386     0.10200
C367        C  0.66661511  0.76551839  0.62000226    -0.07000
C368        C  0.69734140  0.80168929  0.61611915    -0.18200
C369        C  0.68308897  0.84413901  0.60116596     0.10200
S370        S  0.57904659  0.72752304  0.60634499    -0.33200
S371        S  0.72513002  0.88838469  0.59858824    -0.33200
H372        H  0.69548342  0.92317818  0.61182891     0.28200
H373        H  0.61009736  0.69352243  0.59424428     0.28200
H374        H  0.57073617  0.82024391  0.58494287     0.18800
H375        H  0.73262684  0.79708822  0.62561574     0.18800
C376        C  0.64839186  0.86030238  0.36167568    -0.07000
C377        C  0.65155262  0.82152834  0.38867699    -0.18200
C378        C  0.66595323  0.78050804  0.37035028     0.10200
C379        C  0.67919767  0.77844939  0.32428873    -0.07000
C380        C  0.67690124  0.81762624  0.29757756    -0.18200
C381        C  0.66182790  0.85847777  0.31580037     0.10200
S382        S  0.66415522  0.73169998  0.40691221    -0.33200
S383        S  0.66194252  0.90731997  0.27927302    -0.33200
H384        H  0.67117816  0.93879571  0.31360394     0.28200
H385        H  0.65290666  0.70079978  0.37265029     0.28200
H386        H  0.64074408  0.82272770  0.42373336     0.18800
H387        H  0.68772407  0.81655382  0.26249237     0.18800
C388        C  0.38080661  0.76700627  0.33751440    -0.07000
C389        C  0.35100146  0.80358240  0.34325360    -0.18200
C390        C  0.36685743  0.84581418  0.35720677     0.10200
C391        C  0.41382249  0.85213492  0.36551888    -0.07000
C392        C  0.44359922  0.81555496  0.36057577    -0.18200
C393        C  0.42753328  0.77286725  0.34769585     0.10200
S394        S  0.32564266  0.89060634  0.36210965    -0.33200
S395        S  0.46639049  0.72560971  0.34734368    -0.33200
H396        H  0.50473078  0.74880216  0.36378344     0.28200
H397        H  0.35511200  0.92512960  0.34758379     0.28200
H398        H  0.31506113  0.79961356  0.33542754     0.18800
H399        H  0.47934357  0.82018958  0.36833826     0.18800
C400        C  0.65190021  0.37009455  0.22449014    -0.07000
C401        C  0.65315017  0.34009900  0.18775649    -0.18200
C402        C  0.64241300  0.35426126  0.14382766     0.10200
C403        C  0.62955205  0.39937501  0.13600855    -0.07000
C404        C  0.62832772  0.42961105  0.17244610    -0.18200
C405        C  0.63870502  0.41537742  0.21662252     0.10200
S406        S  0.64781909  0.31366591  0.09878868    -0.33200
S407        S  0.63263559  0.45614532  0.26146942    -0.33200
H408        H  0.62136622  0.42473561  0.29546195     0.28200
H409        H  0.66199238  0.34475166  0.06555937     0.28200
H410        H  0.66419677  0.30565279  0.19302640     0.18800
H411        H  0.61770696  0.46410347  0.16670360     0.18800
C412        C  0.67439206  0.66109028  0.20239053    -0.07000
C413        C  0.62714256  0.65366522  0.20079897    -0.18200
C414        C  0.60680609  0.63301248  0.16328429     0.10200
C415        C  0.63431088  0.61903349  0.12654815    -0.07000
C416        C  0.68135756  0.62661440  0.12805126    -0.18200
C417        C  0.70141090  0.64869488  0.16469662     0.10200
S418        S  0.54603381  0.62403051  0.16529510    -0.33200
S419        S  0.76102442  0.66268752  0.15969422    -0.33200
H420        H  0.75812244  0.70317946  0.18422319     0.28200
H421        H  0.54669667  0.58268479  0.14212255     0.28200
H422        H  0.60610880  0.66295047  0.22941471     0.18800
H423        H  0.70237676  0.61717698  0.09947107     0.18800
C424        C  0.38600221  0.64879288  0.21689720    -0.07000
C425        C  0.39545406  0.67864338  0.18109623    -0.18200
C426        C  0.41034361  0.66292403  0.13905652     0.10200
C427        C  0.41619122  0.61622661  0.13229323    -0.07000
C428        C  0.40785392  0.58629497  0.16825549    -0.18200
C429        C  0.39374242  0.60211857  0.21067976     0.10200
S430        S  0.41842181  0.70404824  0.09467993    -0.33200
S431        S  0.38782068  0.56116186  0.25565740    -0.33200
H432        H  0.39896799  0.59088701  0.29099343     0.28200
H433        H  0.39970292  0.67720329  0.06017361     0.28200
H434        H  0.38930988  0.71433201  0.18522994     0.18800
H435        H  0.41340800  0.55067235  0.16360819     0.18800
C436        C  0.40987588  0.39492728  0.13373099    -0.07000
C437        C  0.43872936  0.38918793  0.17118018    -0.18200
C438        C  0.42179180  0.37307015  0.21256363     0.10200
C439        C  0.37543554  0.36058494  0.21591550    -0.07000
C440        C  0.34668822  0.36706194  0.17846211    -0.18200
C441        C  0.36332934  0.38403719  0.13760853     0.10200
S442        S  0.46039029  0.37124141  0.26004505    -0.33200
S443        S  0.32383346  0.38866561  0.09105922    -0.33200
H444        H  0.35495553  0.37499301  0.05753383     0.28200
H445        H  0.42691119  0.37830378  0.29341047     0.28200
H446        H  0.47427105  0.39848901  0.16852253     0.18800
H447        H  0.31124347  0.35725566  0.18049942     0.18800
C448        C  0.63044901  0.60846765  0.81886847    -0.07000
C449        C  0.59962053  0.61708036  0.78358703    -0.18200
C450        C  0.61478920  0.63137158  0.74082698     0.10200
C451        C  0.66185002  0.63900448  0.73355240    -0.07000
C452        C  0.69251096  0.62967533  0.76886210    -0.18200
C453        C  0.67746591  0.61459725  0.81113206     0.10200
S454        S  0.57268971  0.63721809  0.69675929    -0.33200
S455        S  0.71988871  0.60643013  0.85450557    -0.33200
H456        H  0.69336707  0.62462226  0.88972213     0.28200
H457        H  0.60220272  0.62651050  0.66080088     0.28200
H458        H  0.56345563  0.61139588  0.78902474     0.18800
H459        H  0.72863040  0.63585814  0.76407750     0.18800
C460        C  0.65557485  0.36175502  0.73770888    -0.07000
C461        C  0.64288887  0.40729206  0.74113355    -0.18200
C462        C  0.62526441  0.42467453  0.78164409     0.10200
C463        C  0.62103187  0.39612139  0.81979993    -0.07000
C464        C  0.63184096  0.35037239  0.81582174    -0.18200
C465        C  0.64984016  0.33307570  0.77566771     0.10200
S466        S  0.60736765  0.48287796  0.78197116    -0.33200
S467        S  0.66759596  0.27486678  0.77633177    -0.33200
H468        H  0.70669893  0.28147133  0.74953607     0.28200
H469        H  0.57268613  0.47752875  0.81445752     0.28200
H470        H  0.64647715  0.42927471  0.71202693     0.18800
H471        H  0.62845694  0.32839471  0.84498333     0.18800
C472        C  0.40869453  0.39251014  0.82715398    -0.07000
C473        C  0.36162531  0.38542085  0.82413994    -0.18200
C474        C  0.34238384  0.36447715  0.78635060     0.10200
C475        C  0.37059367  0.35163088  0.74967568    -0.07000
C476        C  0.41765949  0.35972377  0.75228204    -0.18200
C477        C  0.43689416  0.38039733  0.79032660     0.10200
S478        S  0.28206674  0.35293805  0.78834719    -0.33200
S479        S  0.49708964  0.39244991  0.78877976    -0.33200
H480        H  0.49417189  0.43290314  0.81336154     0.28200
H481        H  0.28443329  0.31201352  0.76453265     0.28200
H482        H  0.33983942  0.39448328  0.85238045     0.18800
H483        H  0.43941441  0.35079692  0.72403434     0.18800
C484        C  0.41193551  0.60894704  0.82144968    -0.07000
C485        C  0.40113218  0.65474662  0.81793279    -0.18200
C486        C  0.38434791  0.67293854  0.77749262     0.10200
C487        C  0.38055336  0.64513446  0.73884969    -0.07000
C488        C  0.39115737  0.59907883  0.74249410    -0.18200
C489        C  0.40671341  0.58066696  0.78341369     0.10200
S490        S  0.36447871  0.73067005  0.77684863    -0.33200
S491        S  0.42026899  0.52133982  0.78456260    -0.33200
H492        H  0.45707802  0.52496857  0.81478083     0.28200
H493        H  0.37284238  0.74020352  0.82274456     0.28200
H494        H  0.40454490  0.67593835  0.84750699     0.18800
H495        H  0.38764840  0.57747272  0.71321684     0.18800
loop_ 
_geom_bond_atom_site_label_1 
_geom_bond_atom_site_label_2 
_geom_bond_distance 
_geom_bond_site_symmetry_2 
_ccdc_geom_bond_type 
N1            N2   1.319       .  A
N1            N7   1.315       .  A
N1          Mn30   2.195       .  S
N2            C9   1.352       .  A
N3            N5   1.315       .  A
N3            N4   1.320       .  A
N3          Mn19   2.194   1_554  S
N4           C10   1.351       .  A
N5            N6   1.321       .  A
N5          Mn30   2.204   1_554  S
N6           C10   1.354       .  A
N7            N8   1.321       .  A
N7          Mn19   2.201       .  S
N8            C9   1.353       .  A
C9          C448   1.474       .  S
C10         C415   1.473       .  S
N11          N17   1.315       .  A
N11          N12   1.321       .  A
N11         Mn41   2.205   1_554  S
N12          C20   1.353       .  A
N13          N14   1.318       .  A
N13          N15   1.315       .  A
N13         Mn19   2.187       .  S
N14          C21   1.350       .  A
N15          N16   1.321       .  A
N15         Mn41   2.201       .  S
N16          C21   1.353       .  A
N17          N18   1.319       .  A
N17         Mn19   2.189   1_554  S
N18          C20   1.351       .  A
Mn19        Cl43   2.541       .  S
C20         C427   1.472       .  S
C21         C484   1.468       .  S
N22          N23   1.322       .  A
N22          N28   1.315       .  A
N22         Mn30   2.208   1_554  S
N23          C31   1.353       .  A
N24          N26   1.315       .  A
N24          N25   1.319       .  A
N24         Mn42   2.186       .  S
N25          C32   1.349       .  A
N26          N27   1.322       .  A
N26         Mn30   2.208       .  S
N27          C32   1.353       .  A
N28          N29   1.320       .  A
N28         Mn42   2.198   1_554  S
N29          C31   1.351       .  A
Mn30        Cl43   2.541       .  S
C31         C403   1.473       .  S
C32         C463   1.470       .  S
N33          N34   1.320       .  A
N33          N39   1.315       .  A
N33         Mn41   2.196       .  S
N34          C44   1.352       .  A
N35          N36   1.320       .  A
N35          N37   1.315       .  A
N35         Mn42   2.195   1_554  S
N36          C45   1.351       .  A
N37          N38   1.318       .  A
N37         Mn41   2.192   1_554  S
N38          C45   1.351       .  A
N39          N40   1.321       .  A
N39         Mn42   2.205       .  S
N40          C44   1.353       .  A
Mn41        Cl43   2.542       .  S
Mn42        Cl43   2.543       .  S
C44         C472   1.474       .  S
C45         C436   1.466       .  S
N46          N47   1.323       .  A
N46          N52   1.316       .  A
N46         Mn75   2.218   1_565  S
N47          C54   1.356       .  A
N48          N50   1.315       .  A
N48          N49   1.319       .  A
N48         Mn64   2.191       .  S
N49          C55   1.352       .  A
N50          N51   1.319       .  A
N50         Mn75   2.201       .  S
N51          C55   1.352       .  A
N52          N53   1.319       .  A
N52         Mn64   2.195   1_565  S
N53          C54   1.350       .  A
C54         C391   1.478       .  S
C55         C328   1.473       .  S
N56          N62   1.314       .  A
N56          N57   1.318       .  A
N56         Mn86   2.186       .  S
N57          C65   1.350       .  A
N58          N59   1.319       .  A
N58          N60   1.315       .  A
N58         Mn64   2.194   1_565  S
N59          C66   1.352       .  A
N60          N61   1.320       .  A
N60         Mn86   2.202   1_565  S
N61          C66   1.353       .  A
N62          N63   1.321       .  A
N62         Mn64   2.201       .  S
N63          C65   1.354       .  A
Mn64        Cl88   2.551       .  S
C65         C319   1.470       .  S
C66         C352   1.473       .  S
N67          N68   1.320       .  A
N67          N73   1.316       .  A
N67         Mn75   2.207       .  S
N68          C76   1.352       .  A
N69          N71   1.316       .  A
N69          N70   1.320       .  A
N69         Mn87   2.201   1_565  S
N70          C77   1.352       .  A
N71          N72   1.320       .  A
N71         Mn75   2.203   1_565  S
N72          C77   1.352       .  A
N73          N74   1.322       .  A
N73         Mn87   2.206       .  S
N74          C76   1.353       .  A
Mn75        Cl88   2.543       .  S
C76         C343   1.475       .  S
C77         C376   1.470       .  S
N78          N79   1.319       .  A
N78          N84   1.315       .  A
N78         Mn86   2.195   1_565  S
N79          C89   1.350       .  A
N80          N81   1.320       .  A
N80          N82   1.316       .  A
N80         Mn87   2.200       .  S
N81          C90   1.351       .  A
N82          N83   1.322       .  A
N82         Mn86   2.207       .  S
N83          C90   1.353       .  A
N84          N85   1.321       .  A
N84         Mn87   2.203   1_565  S
N85          C89   1.353       .  A
Mn86        Cl88   2.539       .  S
Mn87        Cl88   2.555       .  S
C89         C364   1.471       .  S
C90         C304   1.473       .  S
N91          N92   1.320       .  A
N91          N97   1.314       .  A
N91        Mn120   2.194   1_655  S
N92          C99   1.351       .  A
N93          N95   1.315       .  A
N93          N94   1.318       .  A
N93        Mn109   2.191       .  S
N94         C100   1.349       .  A
N95          N96   1.323       .  A
N95        Mn120   2.212       .  S
N96         C100   1.356       .  A
N97          N98   1.318       .  A
N97        Mn109   2.188   1_655  S
N98          C99   1.351       .  A
C99         C292   1.467       .  S
C100        C235   1.474       .  S
N101        N107   1.315       .  A
N101        N102   1.318       .  A
N101       Mn131   2.194       .  S
N102        C110   1.352       .  A
N103        N104   1.320       .  A
N103        N105   1.315       .  A
N103       Mn109   2.199   1_655  S
N104        C111   1.353       .  A
N105        N106   1.319       .  A
N105       Mn131   2.195   1_655  S
N106        C111   1.351       .  A
N107        N108   1.320       .  A
N107       Mn109   2.195       .  S
N108        C110   1.352       .  A
Mn109      Cl133   2.545       .  S
C110        C220   1.472       .  S
C111        C259   1.474       .  S
N112        N113   1.318       .  A
N112        N118   1.315       .  A
N112       Mn120   2.186       .  S
N113        C121   1.351       .  A
N114        N116   1.315       .  A
N114        N115   1.322       .  A
N114       Mn132   2.205   1_655  S
N115        C122   1.354       .  A
N116        N117   1.316       .  A
N116       Mn120   2.186   1_655  S
N117        C122   1.349       .  A
N118        N119   1.319       .  A
N118       Mn132   2.196       .  S
N119        C121   1.352       .  A
Mn120      Cl133   2.541       .  S
C121        C247   1.467       .  S
C122        C280   1.472       .  S
N123        N124   1.321       .  A
N123        N129   1.314       .  A
N123       Mn131   2.195   1_655  S
N124        C134   1.352       .  A
N125        N126   1.322       .  A
N125        N127   1.316       .  A
N125       Mn132   2.205       .  S
N126        C135   1.354       .  A
N127        N128   1.319       .  A
N127       Mn131   2.204       .  S
N128        C135   1.353       .  A
N129        N130   1.319       .  A
N129       Mn132   2.198   1_655  S
N130        C134   1.352       .  A
Mn131      Cl133   2.542       .  S
Mn132      Cl133   2.544       .  S
C134        C271   1.472       .  S
C135        C211   1.478       .  S
C136        C283   1.485       .  S
C136        C137   1.405       .  A
C136        C141   1.403       .  A
C137        C138   1.403       .  A
C137        H142   1.084       .  S
C138        C400   1.487       .  S
C138        C139   1.406       .  A
C139        C140   1.406       .  A
C139        H143   1.085       .  S
C140        C340   1.485       .  S
C140        C141   1.401       .  A
C141        H144   1.085       .  S
C145        C295   1.479       .  S
C145        C146   1.400       .  A
C145        C150   1.402       .  A
C146        C147   1.404       .  A
C146        H151   1.084       .  S
C147        C412   1.484       .  S
C147        C148   1.405       .  A
C148        C149   1.405       .  A
C148        H152   1.084       .  S
C149        C379   1.480       .  S
C149        C150   1.401       .  A
C150        H153   1.085       .  S
C154        C460   1.480       .  S
C154        C155   1.404       .  A
C154        C159   1.404       .  A
C155        C156   1.404       .  A
C155        H160   1.084       .  S
C156        C268   1.484       .  S
C156        C157   1.405       .  A
C157        C158   1.403       .  A
C157        H161   1.084       .  S
C158        C307   1.483       .  S
C158        C159   1.403       .  A
C159        H162   1.084       .  S
C163        C388   1.490       .  S
C163        C164   1.408       .  A
C163        C168   1.405       .  A
C164        C165   1.408       .  A
C164        H169   1.084       .  S
C165        C232   1.485       .  S
C165        C166   1.401       .  A
C166        C167   1.401       .  A
C166        H170   1.083       .  S
C167        C424   1.483       .  S
C167        C168   1.403       .  A
C168        H171   1.083       .  S
C172        C355   1.484       .  S
C172        C173   1.402       .  A
C172        C177   1.403       .  A
C173        C174   1.403       .  A
C173        H178   1.086       .  S
C174        C223   1.484       .  S
C174        C175   1.404       .  A
C175        C176   1.400       .  A
C175        H179   1.083       .  S
C176        C487   1.481       .  S
C176        C177   1.403       .  A
C177        H180   1.086       .  S
C181        C475   1.482       .  S
C181        C182   1.402       .  A
C181        C186   1.402       .  A
C182        C183   1.404       .  A
C182        H187   1.084       .  S
C183        C208   1.488       .  S
C183        C184   1.404       .  A
C184        C185   1.405       .  A
C184        H188   1.086       .  S
C185        C316   1.486       .  S
C185        C186   1.405       .  A
C186        H189   1.083       .  S
C190        C451   1.486       .  S
C190        C191   1.404       .  A
C190        C195   1.406       .  A
C191        C192   1.402       .  A
C191        H196   1.085       .  S
C192        C256   1.485       .  S
C192        C193   1.402       .  A
C193        C194   1.403       .  A
C193        H197   1.084       .  S
C194        C367   1.485       .  S
C194        C195   1.406       .  A
C195        H198   1.084       .  S
C199        C331   1.482       .  S
C199        C200   1.405       .  A
C199        C204   1.401       .  A
C200        C201   1.404       .  A
C200        H205   1.081       .  S
C201        C439   1.479       .  S
C201        C202   1.401       .  A
C202        C203   1.399       .  A
C202        H206   1.085       .  S
C203        C244   1.476       .  S
C203        C204   1.399       .  A
C204        H207   1.084       .  S
C208        C209   1.405       .  A
C208        C213   1.417       .  A
C209        C210   1.396       .  A
C209        H218   1.085       .  S
C210        C211   1.412       .  A
C210        S214   1.803       .  S
C211        C212   1.404       .  A
C212        C213   1.402       .  A
C212        H219   1.087       .  S
C213        S215   1.803       .  S
S214        H217   1.407       .  S
S215        H216   1.406       .  S
C220        C221   1.402       .  A
C220        C225   1.413       .  A
C221        C222   1.396       .  A
C221        H230   1.082       .  S
C222        C223   1.416       .  A
C222        S226   1.805       .  S
C223        C224   1.407       .  A
C224        C225   1.399       .  A
C224        H231   1.081       .  S
C225        S227   1.805       .  S
S226        H229   1.407       .  S
S227        H228   1.407       .  S
C232        C233   1.408       .  A
C232        C237   1.414       .  A
C233        C234   1.401       .  A
C233        H242   1.083       .  S
C234        C235   1.411       .  A
C234        S238   1.804       .  S
C235        C236   1.402       .  A
C236        C237   1.398       .  A
C236        H243   1.083       .  S
C237        S239   1.804       .  S
S238        H241   1.407       .  S
S239        H240   1.407       .  S
C244        C245   1.404       .  A
C244        C249   1.414       .  A
C245        C246   1.396       .  A
C245        H254   1.085       .  S
C246        C247   1.412       .  A
C246        S250   1.803       .  S
C247        C248   1.401       .  A
C248        C249   1.394       .  A
C248        H255   1.085       .  S
C249        S251   1.803       .  S
S250        H253   1.407       .  S
S251        H252   1.407       .  S
C256        C257   1.405       .  A
C256        C261   1.417       .  A
C257        C258   1.399       .  A
C257        H266   1.081       .  S
C258        C259   1.413       .  A
C258        S262   1.804       .  S
C259        C260   1.401       .  A
C260        C261   1.398       .  A
C260        H267   1.082       .  S
C261        S263   1.805       .  S
S262        H265   1.407       .  S
S263        H264   1.407       .  S
C268        C269   1.406       .  A
C268        C273   1.415       .  A
C269        C270   1.402       .  A
C269        H278   1.082       .  S
C270        C271   1.413       .  A
C270        S274   1.805       .  S
C271        C272   1.400       .  A
C272        C273   1.397       .  A
C272        H279   1.083       .  S
C273        S275   1.805       .  S
S274        H277   1.407       .  S
S275        H276   1.407       .  S
C280        C281   1.403       .  A
C280        C285   1.412       .  A
C281        C282   1.401       .  A
C281        H290   1.083       .  S
C282        C283   1.417       .  A
C282        S286   1.805       .  S
C283        C284   1.404       .  A
C284        C285   1.393       .  A
C284        H291   1.083       .  S
C285        S287   1.803       .  S
S286        H289   1.407       .  S
S287        H288   1.407       .  S
C292        C293   1.399       .  A
C292        C297   1.412       .  A
C293        C294   1.395       .  A
C293        H302   1.082       .  S
C294        C295   1.413       .  A
C294        S298   1.804       .  S
C295        C296   1.406       .  A
C296        C297   1.400       .  A
C296        H303   1.081       .  S
C297        S299   1.805       .  S
S298        H301   1.407       .  S
S299        H300   1.406       .  S
C304        C305   1.403       .  A
C304        C309   1.411       .  A
C305        C306   1.402       .  A
C305        H314   1.085       .  S
C306        C307   1.414       .  A
C306        S310   1.803       .  S
C307        C308   1.404       .  A
C308        C309   1.398       .  A
C308        H315   1.085       .  S
C309        S311   1.804       .  S
S310        H313   1.407       .  S
S311        H312   1.406       .  S
C316        C317   1.407       .  A
C316        C321   1.417       .  A
C317        C318   1.399       .  A
C317        H326   1.082       .  S
C318        C319   1.411       .  A
C318        S322   1.803       .  S
C319        C320   1.401       .  A
C320        C321   1.396       .  A
C320        H327   1.083       .  S
C321        S323   1.804       .  S
S322        H325   1.407       .  S
S323        H324   1.407       .  S
C328        C329   1.403       .  A
C328        C333   1.413       .  A
C329        C330   1.398       .  A
C329        H338   1.082       .  S
C330        C331   1.414       .  A
C330        S334   1.804       .  S
C331        C332   1.406       .  A
C332        C333   1.397       .  A
C332        H339   1.082       .  S
C333        S335   1.805       .  S
S334        H337   1.407       .  S
S335        H336   1.407       .  S
C340        C341   1.407       .  A
C340        C345   1.413       .  A
C341        C342   1.400       .  A
C341        H350   1.082       .  S
C342        C343   1.412       .  A
C342        S346   1.803       .  S
C343        C344   1.404       .  A
C344        C345   1.400       .  A
C344        H351   1.082       .  S
C345        S347   1.804       .  S
S346        H349   1.406       .  S
S347        H348   1.407       .  S
C352        C353   1.402       .  A
C352        C357   1.411       .  A
C353        C354   1.398       .  A
C353        H362   1.085       .  S
C354        C355   1.417       .  A
C354        S358   1.805       .  S
C355        C356   1.406       .  A
C356        C357   1.397       .  A
C356        H363   1.085       .  S
C357        S359   1.803       .  S
S358        H361   1.406       .  S
S359        H360   1.407       .  S
C364        C365   1.403       .  A
C364        C369   1.409       .  A
C365        C366   1.400       .  A
C365        H374   1.082       .  S
C366        C367   1.415       .  A
C366        S370   1.804       .  S
C367        C368   1.406       .  A
C368        C369   1.398       .  A
C368        H375   1.082       .  S
C369        S371   1.803       .  S
S370        H373   1.407       .  S
S371        H372   1.406       .  S
C376        C377   1.401       .  A
C376        C381   1.411       .  A
C377        C378   1.399       .  A
C377        H386   1.082       .  S
C378        C379   1.415       .  A
C378        S382   1.804       .  S
C379        C380   1.404       .  A
C380        C381   1.399       .  A
C380        H387   1.083       .  S
C381        S383   1.804       .  S
S382        H385   1.406       .  S
S383        H384   1.407       .  S
C388        C389   1.405       .  A
C388        C393   1.416       .  A
C389        C390   1.400       .  A
C389        H398   1.087       .  S
C390        C391   1.413       .  A
C390        S394   1.804       .  S
C391        C392   1.402       .  A
C392        C393   1.405       .  A
C392        H399   1.083       .  S
C393        S395   1.808       .  S
S394        H397   1.406       .  S
S395        H396   1.407       .  S
C400        C401   1.405       .  A
C400        C405   1.417       .  A
C401        C402   1.398       .  A
C401        H410   1.083       .  S
C402        C403   1.409       .  A
C402        S406   1.803       .  S
C403        C404   1.403       .  A
C404        C405   1.403       .  A
C404        H411   1.083       .  S
C405        S407   1.804       .  S
S406        H409   1.407       .  S
S407        H408   1.406       .  S
C412        C413   1.406       .  A
C412        C417   1.415       .  A
C413        C414   1.401       .  A
C413        H422   1.082       .  S
C414        C415   1.414       .  A
C414        S418   1.805       .  S
C415        C416   1.400       .  A
C416        C417   1.397       .  A
C416        H423   1.082       .  S
C417        S419   1.805       .  S
S418        H421   1.406       .  S
S419        H420   1.407       .  S
C424        C425   1.404       .  A
C424        C429   1.416       .  A
C425        C426   1.396       .  A
C425        H434   1.081       .  S
C426        C427   1.411       .  A
C426        S430   1.803       .  S
C427        C428   1.403       .  A
C428        C429   1.401       .  A
C428        H435   1.079       .  S
C429        S431   1.805       .  S
S430        H433   1.407       .  S
S431        H432   1.407       .  S
C436        C437   1.403       .  A
C436        C441   1.409       .  A
C437        C438   1.401       .  A
C437        H446   1.082       .  S
C438        C439   1.414       .  A
C438        S442   1.804       .  S
C439        C440   1.404       .  A
C440        C441   1.393       .  A
C440        H447   1.082       .  S
C441        S443   1.804       .  S
S442        H445   1.407       .  S
S443        H444   1.407       .  S
C448        C449   1.403       .  A
C448        C453   1.411       .  A
C449        C450   1.402       .  A
C449        H458   1.087       .  S
C450        C451   1.416       .  A
C450        S454   1.803       .  S
C451        C452   1.405       .  A
C452        C453   1.395       .  A
C452        H459   1.085       .  S
C453        S455   1.803       .  S
S454        H457   1.406       .  S
S455        H456   1.407       .  S
C460        C461   1.406       .  A
C460        C465   1.415       .  A
C461        C462   1.402       .  A
C461        H470   1.082       .  S
C462        C463   1.413       .  A
C462        S466   1.805       .  S
C463        C464   1.399       .  A
C464        C465   1.396       .  A
C464        H471   1.083       .  S
C465        S467   1.804       .  S
S466        H469   1.406       .  S
S467        H468   1.407       .  S
C472        C473   1.401       .  A
C472        C477   1.413       .  A
C473        C474   1.398       .  A
C473        H482   1.085       .  S
C474        C475   1.415       .  A
C474        S478   1.805       .  S
C475        C476   1.405       .  A
C476        C477   1.400       .  A
C476        H483   1.083       .  S
C477        S479   1.804       .  S
S478        H481   1.406       .  S
S479        H480   1.407       .  S
C484        C485   1.399       .  A
C484        C489   1.412       .  A
C485        C486   1.399       .  A
C485        H494   1.082       .  S
C486        C487   1.414       .  A
C486        S490   1.810       .  S
C487        C488   1.405       .  A
C488        C489   1.401       .  A
C488        H495   1.082       .  S
C489        S491   1.805       .  S
S490        H493   1.406       .  S
S491        H492   1.406       .  S
