geometry optimzed in LAMMPS
_audit_creation_date              2020-12-01 
_audit_creation_method            'lammps2cif' 
_symmetry_space_group_name_H-M    'P1' 
_symmetry_Int_Tables_number       1 
_symmetry_cell_setting            triclinic 
loop_ 
_symmetry_equiv_pos_as_xyz 
  x,y,z 
_cell_length_a                    41.09200546 
_cell_length_b                    41.41082189768869 
_cell_length_c                    67.75825684545812 
_cell_angle_alpha                 90.09320490846308 
_cell_angle_beta                  89.8250537263702 
_cell_angle_gamma                 90.37040066832967 
loop_ 
_atom_site_label 
_atom_site_type_symbol 
_atom_site_fract_x 
_atom_site_fract_y 
_atom_site_fract_z 
_atom_site_charge 
C1          C  0.24979717  0.04024191  0.23923950     0.86200
C2          C  0.28161739  0.03411620  0.25085774    -0.54000
C3          C  0.28404351  0.50720599  0.25939017     0.09200
C4          C  0.25238806  0.48722442  0.25892557     0.20100
C5          C  0.24513561  0.00951595  0.22678627    -0.54700
C6          C  0.24628789  0.48121239  0.23693021     0.09300
C7          C  0.22396059  0.03858950  0.25565249    -0.54300
C8          C  0.22554189  0.51064273  0.26531560     0.09800
H9          H  0.30174148  0.05106044  0.25197111     0.14400
H10         H  0.25332957  0.46473566  0.26782100     0.00100
H11         H  0.24576811  0.50770188  0.20986541     0.14700
H12         H  0.20695160  0.05786162  0.25861019     0.14400
N13         N  0.44664906  0.25022156  0.99986393    -0.36900
N14         N  0.99497185  0.25981019  0.97000025    -0.57400
N15         N  0.04676721  0.26756930  0.99895287    -0.36900
N16         N  0.99919386  0.26433838  0.03040507    -0.57400
C17         C  0.42745440  0.24821703  0.98373098     0.26700
C18         C  0.42739684  0.25588653  0.01560985     0.26700
C19         C  0.06384587  0.26025388  0.98247784     0.26700
C20         C  0.06621357  0.26152957  0.01460322     0.26700
C21         C  0.46989915  0.22763689  0.96227811     0.35300
C22         C  0.01992725  0.26717671  0.95776927     0.35300
C23         C  0.47084321  0.26280263  0.04158115     0.35300
C24         C  0.02585763  0.27139116  0.04119797     0.35300
C25         C  0.39537693  0.25314794  0.98907190    -0.22100
C26         C  0.39522310  0.25736621  0.00928388    -0.22100
C27         C  0.09459557  0.24964043  0.98768472    -0.22100
C28         C  0.09611237  0.25053439  0.00798865    -0.22100
C29         C  0.47941686  0.20134141  0.97342608    -0.23200
C30         C  0.00839901  0.27337406  0.93895393    -0.23200
C31         C  0.48045052  0.27066014  0.06062428    -0.23200
C32         C  0.01701349  0.27969047  0.06029167    -0.23200
C33         C  0.43908228  0.24144405  0.96452865    -0.18500
C34         C  0.43789193  0.25970170  0.03544442    -0.18500
C35         C  0.05814163  0.26743386  0.03458706    -0.18500
C36         C  0.05312226  0.26512526  0.96290047    -0.18500
H37         H  0.37427325  0.25272942  0.97955725     0.14400
H38         H  0.37373914  0.26127088  0.01821223     0.14400
H39         H  0.11408051  0.24248628  0.97785505     0.14400
H40         H  0.11694948  0.24412506  0.01685621     0.14400
H41         H  0.46385618  0.18540103  0.98194712     0.12600
H42         H  0.02248373  0.27931760  0.92591768     0.12600
H43         H  0.46499893  0.27599154  0.07316116     0.12600
H44         H  0.03288597  0.28569797  0.07249357     0.12600
H45         H  0.47172355  0.24751397  0.99981961     0.25900
H46         H  0.02462698  0.27958007  0.99933283     0.25900
C47         C  0.24881802  0.03601597  0.76320722     0.86200
C48         C  0.21962236  0.03334429  0.74885728    -0.54000
C49         C  0.22002455  0.50791563  0.73744578     0.09200
C50         C  0.24926553  0.48589927  0.74196232     0.20100
C51         C  0.24600095  0.00438978  0.77493466    -0.54700
C52         C  0.24825366  0.48195706  0.76473806     0.09300
C53         C  0.27879670  0.03227900  0.75012067    -0.54300
C54         C  0.27938542  0.50744565  0.73725229     0.09800
H55         H  0.19934293  0.04991568  0.74879727     0.14400
H56         H  0.24883478  0.46228477  0.73436791     0.00100
H57         H  0.24956445  0.51210087  0.79053546     0.14700
H58         H  0.29860788  0.04980371  0.74995483     0.14400
C59         C  0.99831032  0.21001723  0.74143734     0.86200
C60         C  0.46688660  0.21598407  0.75013832    -0.54000
C61         C  0.46609484  0.24500412  0.75967679     0.09200
C62         C  0.99648010  0.26382556  0.76216550     0.20100
C63         C  0.00229644  0.24130480  0.72920541    -0.54700
C64         C  0.00223905  0.26925861  0.74001417     0.09300
C65         C  0.02367433  0.21214561  0.75782706    -0.54300
C66         C  0.02392431  0.24031478  0.76836445     0.09800
H67         H  0.44537683  0.20080383  0.74981890     0.14400
H68         H  0.99591509  0.28676021  0.77062307     0.00100
H69         H  0.00197782  0.24178098  0.71325785     0.14700
H70         H  0.04182866  0.19353432  0.76001754     0.14400
N71         N  0.25612500  0.45870399  0.00055877    -0.36900
N72         N  0.25658309  0.00990386  0.97079342    -0.57400
N73         N  0.26273786  0.06107584  0.00013398    -0.36900
N74         N  0.26182028  0.01344192  0.03157355    -0.57400
C75         C  0.25996961  0.43948138  0.98460406     0.26700
C76         C  0.25876684  0.43996123  0.01678819     0.26700
C77         C  0.26791659  0.07830039  0.98347485     0.26700
C78         C  0.27073918  0.08016594  0.01561673     0.26700
C79         C  0.25612526  0.48193604  0.95835165     0.35300
C80         C  0.25158934  0.03585887  0.95913207     0.35300
C81         C  0.25089016  0.48297616  0.04219358     0.35300
C82         C  0.25918325  0.04064261  0.04252955     0.35300
C83         C  0.26411545  0.40783241  0.99077739    -0.22100
C84         C  0.26367173  0.40817995  0.01107201    -0.22100
C85         C  0.27930556  0.10887526  0.98843664    -0.22100
C86         C  0.28108872  0.11004209  0.00872663    -0.22100
C87         C  0.25030479  0.49142979  0.93906138    -0.23200
C88         C  0.23957201  0.02597332  0.94098093    -0.23200
C89         C  0.24086073  0.49313517  0.06073124    -0.23200
C90         C  0.25011147  0.03293352  0.06168982    -0.23200
C91         C  0.25834101  0.44939097  0.96463081    -0.18500
C92         C  0.25502426  0.45038372  0.03656633    -0.18500
C93         C  0.26596981  0.07230118  0.03574867    -0.18500
C94         C  0.25983543  0.06811795  0.96411758    -0.18500
H95         H  0.26703744  0.38660436  0.98161840     0.14400
H96         H  0.26612675  0.38728414  0.02051526     0.14400
H97         H  0.28496104  0.12858694  0.97850311     0.14400
H98         H  0.28839078  0.13078241  0.01743197     0.14400
H99         H  0.24627202  0.47614070  0.92632315     0.12600
H100        H  0.23371314  0.04098399  0.92843993     0.12600
H101        H  0.23373173  0.47821518  0.07313437     0.12600
H102        H  0.24645595  0.04932173  0.07394752     0.12600
H103        H  0.24914203  0.48262697  0.00032805     0.25900
H104        H  0.25031539  0.03928054  0.00097801     0.25900
N105        N  0.23442795  0.32859558  0.87622874    -0.06400
N106        N  0.22352958  0.34629718  0.89099576    -0.58500
N107        N  0.26551491  0.32879570  0.83057142    -0.06100
N108        N  0.27642692  0.34893430  0.81692542    -0.60600
N109        N  0.23350024  0.32868373  0.83086362    -0.05600
N110        N  0.22217161  0.34875745  0.81745108    -0.58500
N111        N  0.26640786  0.32877290  0.87600858    -0.05300
N112        N  0.27776167  0.34666717  0.89063988    -0.61000
C113        C  0.25069104  0.35752558  0.89997648     0.95800
C114        C  0.24917018  0.36103849  0.80861110     0.95600
N115        N  0.31946743  0.24270021  0.83036375    -0.06600
N116        N  0.33983120  0.23151608  0.81688914    -0.59100
N117        N  0.32041592  0.27488059  0.87565401    -0.04700
N118        N  0.33920482  0.28536419  0.89016597    -0.60300
N119        N  0.31949580  0.24318159  0.87555645    -0.06600
N120        N  0.33730982  0.23153269  0.88994126    -0.59300
N121        N  0.31967625  0.27449700  0.83028725    -0.04300
N122        N  0.34005362  0.28549796  0.81674133    -0.60400
Mn123      Mn  0.29371819  0.30248111  0.85308004     1.18400
C124        C  0.35216675  0.25848987  0.80833006     0.97900
C125        C  0.34950476  0.25797578  0.89908811     0.98600
N126        N  0.17837682  0.27440968  0.83163427    -0.06600
N127        N  0.15722198  0.28514703  0.81859324    -0.62900
N128        N  0.17936580  0.24333288  0.87686732    -0.05400
N129        N  0.16024434  0.23230423  0.89103460    -0.63600
N130        N  0.17948382  0.27507158  0.87679262    -0.06100
N131        N  0.16032951  0.28620957  0.89089708    -0.63200
N132        N  0.17855572  0.24261885  0.83168530    -0.05000
N133        N  0.15773384  0.23119151  0.81860496    -0.63900
Mn134      Mn  0.20584105  0.30239675  0.85383032     1.10700
C135        C  0.14508257  0.25792932  0.81026237     0.99100
C136        C  0.14832174  0.25923042  0.89965424     0.99200
N137        N  0.26522065  0.19020312  0.87668848    -0.06100
N138        N  0.27671461  0.17338466  0.89159990    -0.61500
N139        N  0.23264545  0.18817788  0.83163043    -0.05400
N140        N  0.22139239  0.16722453  0.81856777    -0.58200
N141        N  0.26464908  0.18835937  0.83145973    -0.06700
N142        N  0.27577263  0.16750441  0.81839682    -0.61100
N143        N  0.23325900  0.18995834  0.87701974    -0.05700
N144        N  0.22243820  0.17284851  0.89214689    -0.58200
Mn145      Mn  0.29278540  0.21551062  0.85340600     1.20200
Mn146      Mn  0.20530860  0.21535400  0.85422606     1.10100
Cl147      Cl  0.24939270  0.25895026  0.85351614    -0.86200
C148        C  0.24981364  0.16270388  0.90125904     0.96100
C149        C  0.24857517  0.15489241  0.81019178     0.95900
N150        N  0.17697266  0.24383634  0.16830981    -0.06400
N151        N  0.15452480  0.23155549  0.18013614    -0.58500
N152        N  0.17899637  0.27790890  0.12364657    -0.06100
N153        N  0.16093299  0.28907766  0.10904397    -0.60600
N154        N  0.17967266  0.24617047  0.12310325    -0.05600
N155        N  0.16216594  0.23528342  0.10819220    -0.58500
N156        N  0.17645495  0.27561467  0.16905601    -0.05300
N157        N  0.15357743  0.28542267  0.18144738    -0.61000
C158        C  0.14010323  0.25764387  0.18829950     0.95800
C159        C  0.15034840  0.26213160  0.09949590     0.95600
N160        N  0.26513781  0.33234354  0.12569961    -0.06600
N161        N  0.27665556  0.34895349  0.11059632    -0.59100
N162        N  0.23238758  0.32993567  0.17104210    -0.04700
N163        N  0.22123916  0.34836781  0.18543840    -0.60300
N164        N  0.26442155  0.33047470  0.17101200    -0.06600
N165        N  0.27545691  0.34924184  0.18527791    -0.59300
N166        N  0.23318577  0.33187207  0.12545581    -0.04300
N167        N  0.22239936  0.34827321  0.11018049    -0.60400
Mn168      Mn  0.20456686  0.30474967  0.14744835     1.18400
C169        C  0.24970793  0.35868784  0.10091574     0.97900
C170        C  0.24836787  0.36019529  0.19438021     0.98600
N171        N  0.23467657  0.19334973  0.12276169    -0.06600
N172        N  0.22484150  0.17629256  0.10735298    -0.62900
N173        N  0.26532001  0.19239460  0.16858866    -0.05400
N174        N  0.27695429  0.17242302  0.18187367    -0.63600
N175        N  0.23334680  0.19092718  0.16833780    -0.06100
N176        N  0.22286049  0.16965377  0.18149566    -0.63200
N177        N  0.26659196  0.19438560  0.12329964    -0.05000
N178        N  0.27904201  0.17827302  0.10831810    -0.63900
Mn179      Mn  0.20552617  0.21782853  0.14570282     1.10700
C180        C  0.25282083  0.16713144  0.09832440     0.99100
C181        C  0.25044232  0.15821408  0.18997219     0.99200
N182        N  0.32042354  0.27841253  0.16991746    -0.06100
N183        N  0.34211460  0.28901334  0.18281783    -0.61500
N184        N  0.31880144  0.24867666  0.12417662    -0.05400
N185        N  0.33447283  0.23810210  0.10850917    -0.58200
N186        N  0.31897069  0.28037006  0.12457309    -0.06700
N187        N  0.33491857  0.29204593  0.10916355    -0.61100
N188        N  0.31996113  0.24665944  0.16954892    -0.05700
N189        N  0.34110904  0.23500391  0.18226430    -0.58200
Mn190      Mn  0.29286341  0.30624428  0.14794443     1.20200
Mn191      Mn  0.29320394  0.21993298  0.14655794     1.10100
Cl192      Cl  0.24894227  0.26217663  0.14711294    -0.86200
C193        C  0.35460065  0.26162263  0.19051246     0.96100
C194        C  0.34431110  0.26532743  0.09917224     0.95900
N195        N  0.48228519  0.06014529  0.66962582    -0.06400
N196        N  0.47161539  0.07854836  0.68417413    -0.58500
N197        N  0.01300807  0.05817972  0.62499098    -0.06100
N198        N  0.02378803  0.07450002  0.60954776    -0.60600
N199        N  0.48047853  0.06107642  0.62397820    -0.05600
N200        N  0.46904177  0.07841471  0.60917716    -0.58500
N201        N  0.01436013  0.05960195  0.67054036    -0.05300
N202        N  0.02610504  0.07961068  0.68398395    -0.61000
C203        C  0.49913137  0.08983235  0.69277686     0.95800
C204        C  0.49613378  0.08939611  0.59971071     0.95600
N205        N  0.07196873  0.47221058  0.62514455    -0.06600
N206        N  0.09247443  0.46151517  0.61162985    -0.59100
N207        N  0.06802676  0.00535996  0.67017457    -0.04700
N208        N  0.08805540  0.01686020  0.68369244    -0.60300
N209        N  0.07090880  0.47191994  0.67043450    -0.06600
N210        N  0.08977407  0.46093641  0.68464893    -0.59300
N211        N  0.06742320  0.00476812  0.62484451    -0.04300
N212        N  0.08646178  0.01546954  0.61048563    -0.60400
Mn213      Mn  0.04132488  0.03267468  0.64764373     1.18400
C214        C  0.10507606  0.48855704  0.60327338     0.97900
C215        C  0.10052213  0.48793474  0.69392523     0.98600
N216        N  0.42749068  0.00581414  0.62484911    -0.06600
N217        N  0.41020541  0.01655170  0.60991443    -0.62900
N218        N  0.42909397  0.47394317  0.66836272    -0.05400
N219        N  0.40670646  0.46301591  0.68077446    -0.63600
N220        N  0.42923002  0.00534640  0.67014078    -0.06100
N221        N  0.40883799  0.01628789  0.68353694    -0.63200
N222        N  0.43255162  0.47562675  0.62292342    -0.05000
N223        N  0.41678035  0.46552182  0.60708219    -0.63900
Mn224      Mn  0.45406081  0.03386290  0.64716521     1.10700
C225        C  0.40766294  0.49312374  0.59798888     0.99100
C226        C  0.39424178  0.49006827  0.68909332     0.99200
N227        N  0.01651351  0.41733729  0.67029582    -0.06100
N228        N  0.02748520  0.39800947  0.68424956    -0.61500
N229        N  0.48628919  0.42241625  0.62314890    -0.05400
N230        N  0.47571057  0.40644653  0.60755759    -0.58200
N231        N  0.01625951  0.41792105  0.62462301    -0.06700
N232        N  0.02686695  0.40013240  0.60973476    -0.61100
N233        N  0.48392879  0.41945894  0.66861957    -0.05700
N234        N  0.47252724  0.39831751  0.68158665    -0.58200
Mn235      Mn  0.04462487  0.44407891  0.64757278     1.20200
Mn236      Mn  0.45718909  0.44703064  0.64586895     1.10100
Cl237      Cl  0.50137886  0.49070141  0.64720408    -0.86200
C238        C  0.49952392  0.38620978  0.69028463     0.96100
C239        C  0.50315395  0.39650011  0.59830493     0.95900
N240        N  0.07525337  0.47671759  0.33360681    -0.06400
N241        N  0.09830412  0.46626905  0.32159492    -0.58500
N242        N  0.06869003  0.00198527  0.37800539    -0.06100
N243        N  0.08663636  0.01242083  0.39282517    -0.60600
N244        N  0.07194882  0.47795189  0.37872509    -0.05600
N245        N  0.08999135  0.46800638  0.39356059    -0.58500
N246        N  0.07060864  0.00403244  0.33272045    -0.05300
N247        N  0.09189811  0.01616271  0.32013677    -0.61000
C248        C  0.11108386  0.49345361  0.31352604     0.95800
C249        C  0.10031742  0.49567235  0.40226490     0.95600
N250        N  0.48302192  0.05658655  0.37905395    -0.06600
N251        N  0.47122964  0.07381560  0.39383037    -0.59100
N252        N  0.01668553  0.05835531  0.33302914    -0.04700
N253        N  0.02887162  0.07995071  0.32070391    -0.60300
N254        N  0.48527541  0.05807348  0.33382990    -0.06600
N255        N  0.47441650  0.07872154  0.32068036    -0.59300
N256        N  0.01510244  0.05563866  0.37818781    -0.04300
N257        N  0.02604912  0.07267096  0.39325098    -0.60400
Mn258      Mn  0.04333991  0.03055372  0.35543833     1.18400
C259        C  0.49802889  0.08437103  0.40359318     0.97900
C260        C  0.50171489  0.09216674  0.31311202     0.98600
N261        N  0.01923958  0.42195458  0.37856680    -0.06600
N262        N  0.02969649  0.40448506  0.39358079    -0.62900
N263        N  0.48665131  0.42232607  0.33108369    -0.05400
N264        N  0.47661481  0.40102609  0.31790421    -0.63600
N265        N  0.02122693  0.42117347  0.33309168    -0.06100
N266        N  0.03329862  0.40130266  0.31974930    -0.63200
N267        N  0.48364023  0.42240626  0.37613574    -0.05000
N268        N  0.47164234  0.40268916  0.38964858    -0.63900
Mn269      Mn  0.04760494  0.44868874  0.35596204     1.10700
C270        C  0.49821376  0.39076387  0.39875528     0.99100
C271        C  0.50444738  0.38831107  0.31061175     0.99200
N272        N  0.42897622  0.00461242  0.33250269    -0.06100
N273        N  0.40637171  0.01612992  0.32062529    -0.61500
N274        N  0.42951249  0.47608387  0.37547246    -0.05400
N275        N  0.41195788  0.46563271  0.39055145    -0.58200
N276        N  0.42994856  0.00269458  0.37759466    -0.06700
N277        N  0.41342869  0.01296269  0.39303358    -0.61100
N278        N  0.43052828  0.47550322  0.32995355    -0.05700
N279        N  0.40973339  0.46440280  0.31666310    -0.58200
Mn280      Mn  0.45625946  0.03117725  0.35559447     1.20200
Mn281      Mn  0.45689909  0.44838587  0.35305650     1.10100
Cl282      Cl  0.50076524  0.49222859  0.35382975    -0.86200
C283        C  0.39735023  0.49142071  0.30839258     0.96100
C284        C  0.40174794  0.49311489  0.39946825     0.95900
N285        N  0.99987304  0.28716830  0.50100879    -0.36900
N286        N  0.99811604  0.23848324  0.47030883    -0.57400
N287        N  0.99507142  0.18774283  0.50050990    -0.36900
N288        N  0.99338955  0.23652002  0.53114629    -0.57400
C289        C  0.99746723  0.30640129  0.48494440     0.26700
C290        C  0.99222363  0.30515835  0.51703895     0.26700
C291        C  0.98938555  0.16977134  0.48422936     0.26700
C292        C  0.98933440  0.16878751  0.51640483     0.26700
C293        C  0.00378613  0.26447785  0.45868946     0.35300
C294        C  0.99909289  0.21226533  0.45841214     0.35300
C295        C  0.99864677  0.26256138  0.54276665     0.35300
C296        C  0.99889664  0.21022005  0.54243950     0.35300
C297        C  0.98899090  0.33728865  0.49093773    -0.22100
C298        C  0.98541624  0.33642429  0.51112002    -0.22100
C299        C  0.98056032  0.13869185  0.48986585    -0.22100
C300        C  0.98043347  0.13811378  0.51015057    -0.22100
C301        C  0.00762489  0.25472272  0.43923897    -0.23200
C302        C  0.00487944  0.22171377  0.43908203    -0.23200
C303        C  0.00734033  0.25277371  0.56157978    -0.23200
C304        C  0.00759239  0.21960295  0.56135360    -0.23200
C305        C  0.00318105  0.29707853  0.46505822    -0.18500
C306        C  0.99379909  0.29498985  0.53698734    -0.18500
C307        C  0.99358759  0.17791076  0.53636911    -0.18500
C308        C  0.99344131  0.17994449  0.46441589    -0.18500
H309        H  0.98563065  0.35836385  0.48177254     0.14400
H310        H  0.97904827  0.35671292  0.52041882     0.14400
H311        H  0.97493740  0.11840754  0.48034931     0.14400
H312        H  0.97471841  0.11736661  0.51924625     0.14400
H313        H  0.01158955  0.26982068  0.42642067     0.12600
H314        H  0.00643607  0.20646172  0.42613018     0.12600
H315        H  0.01265682  0.26795411  0.57419691     0.12600
H316        H  0.01298156  0.20414985  0.57377436     0.12600
H317        H  0.00966724  0.26402100  0.50124284     0.25900
H318        H  0.00568689  0.21064726  0.50072513     0.25900
N319        N  0.30298209  0.49876158  0.49899354    -0.36900
N320        N  0.25624249  0.49824732  0.53086002    -0.57400
N321        N  0.20355099  0.49191551  0.50255916    -0.36900
N322        N  0.25051774  0.49492702  0.47064597    -0.57400
C323        C  0.32228865  0.50699521  0.51430467     0.26700
C324        C  0.31888882  0.50720318  0.48231189     0.26700
C325        C  0.18658368  0.49929163  0.51908460     0.26700
C326        C  0.18360198  0.49653821  0.48698155     0.26700
C327        C  0.28376263  0.49313006  0.54119667     0.35300
C328        C  0.23130698  0.49186202  0.54328198     0.35300
C329        C  0.27617704  0.49078003  0.45844726     0.35300
C330        C  0.22385926  0.48604913  0.46036190     0.35300
C331        C  0.35093937  0.52070562  0.50733609    -0.22100
C332        C  0.34877099  0.52089772  0.48706628    -0.22100
C333        C  0.15514891  0.50789583  0.51396392    -0.22100
C334        C  0.15339776  0.50656343  0.49367627    -0.22100
C335        C  0.27631279  0.48346242  0.56025523    -0.23200
C336        C  0.24304498  0.48298498  0.56164822    -0.23200
C337        C  0.26584505  0.47910344  0.44031931    -0.23200
C338        C  0.23260029  0.47627913  0.44149634    -0.23200
C339        C  0.31535147  0.50042346  0.53427517    -0.18500
C340        C  0.30837704  0.49999577  0.46299152    -0.18500
C341        C  0.19158820  0.49024452  0.46702717    -0.18500
C342        C  0.19818584  0.49626619  0.53865176    -0.18500
H343        H  0.37139609  0.52927452  0.51594876     0.14400
H344        H  0.36733216  0.52951518  0.47696290     0.14400
H345        H  0.13544519  0.51432987  0.52381605     0.14400
H346        H  0.13211729  0.51174575  0.48488607     0.14400
H347        H  0.29308471  0.47821338  0.57209299     0.12600
H348        H  0.22919047  0.47717080  0.57478562     0.12600
H349        H  0.28061029  0.47406482  0.42743409     0.12600
H350        H  0.21660991  0.46860046  0.42969623     0.12600
H351        H  0.28221936  0.48436593  0.49982930     0.25900
H352        H  0.22619922  0.48093923  0.50207650     0.25900
C353        C  0.99979432  0.21012528  0.26340053     0.86200
C354        C  0.02879725  0.21606354  0.24965199    -0.54000
C355        C  0.02737753  0.24399641  0.23911261     0.09200
C356        C  0.99654750  0.26417222  0.24333100     0.20100
C357        C  0.99779003  0.24110960  0.27621103    -0.54700
C358        C  0.99653046  0.26949688  0.26584614     0.09300
C359        C  0.46896719  0.21101589  0.25051376    -0.54300
C360        C  0.46670987  0.23928982  0.24024102     0.09800
H361        H  0.04896074  0.19934695  0.24832181     0.14400
H362        H  0.99623237  0.28648318  0.23445690     0.00100
H363        H  0.49728432  0.24188304  0.29303731     0.14700
H364        H  0.45107888  0.19176195  0.24934346     0.14400
C365        C  0.48070376  0.35592013  0.28378895    -0.06000
C366        C  0.50473488  0.35866169  0.29834864    -0.00100
C367        C  0.02782407  0.33242950  0.30186545    -0.08700
C368        C  0.02337982  0.30432655  0.29057181    -0.06100
C369        C  0.49735252  0.30104609  0.27610359    -0.00100
C370        C  0.47610118  0.32743791  0.27273742    -0.08600
C371        C  0.44714464  0.32543074  0.25888819     0.61800
H372        H  0.46485341  0.37635736  0.28148245     0.12500
H373        H  0.03904402  0.28388012  0.29312709     0.12500
C374        C  0.05414495  0.33312342  0.31759719     0.62000
F375        F  0.42740546  0.35231093  0.26041063    -0.23100
F376        F  0.42838087  0.29882949  0.26355317    -0.20500
F377        F  0.45735704  0.32343492  0.23953926    -0.20100
F378        F  0.04059049  0.34035325  0.33578418    -0.20200
F379        F  0.07744864  0.35604868  0.31278017    -0.20500
F380        F  0.06970047  0.30370826  0.31931027    -0.23200
C381        C  0.99075926  0.12098456  0.28089817    -0.06000
C382        C  0.50132540  0.12205632  0.30140143    -0.00100
C383        C  0.48851843  0.15107986  0.30894409    -0.08700
C384        C  0.48639249  0.17783792  0.29634366    -0.06100
C385        C  0.49799476  0.17739403  0.27664995    -0.00100
C386        C  0.99262458  0.14719161  0.26769682    -0.08600
C387        C  0.98543358  0.13915850  0.24621143     0.61800
H388        H  0.98100796  0.09802553  0.27583524     0.12500
H389        H  0.47418277  0.19886503  0.30194903     0.12500
C390        C  0.47765665  0.15405900  0.33036897     0.62000
F391        F  0.95219428  0.13600051  0.24362937    -0.23100
F392        F  0.99981790  0.11006610  0.24131031    -0.20500
F393        F  0.50680418  0.16253072  0.23421240    -0.20100
F394        F  0.06192684  0.13626797  0.32700122    -0.20200
F395        F  0.45033271  0.13517258  0.33363705    -0.20500
F396        F  0.47000957  0.18556026  0.33535180    -0.23200
C397        C  0.46749376  0.12356897  0.42418456    -0.06000
C398        C  0.49716883  0.10780326  0.42033390    -0.00100
C399        C  0.02648437  0.11595357  0.43020202    -0.08700
C400        C  0.02349237  0.13983006  0.44483157    -0.06100
C401        C  0.99375302  0.15453840  0.44894215    -0.00100
C402        C  0.46481593  0.14762655  0.43875902    -0.08600
C403        C  0.43298754  0.16547642  0.44173629     0.61800
H404        H  0.44649278  0.11773383  0.41523214     0.12500
H405        H  0.04452140  0.14753699  0.45326020     0.12500
C406        C  0.05945439  0.10031995  0.42725532     0.62000
F407        F  0.40865915  0.15375945  0.42953368    -0.23100
F408        F  0.43740156  0.19789942  0.43761598    -0.20500
F409        F  0.42261279  0.16218364  0.46106543    -0.20100
F410        F  0.07176273  0.10830511  0.40887334    -0.20200
F411        F  0.05630110  0.06716425  0.42899897    -0.20500
F412        F  0.08193081  0.11050175  0.44117628    -0.23200
C413        C  0.03129761  0.35725393  0.42567155    -0.06000
C414        C  0.49774338  0.36624536  0.41484116    -0.00100
C415        C  0.47118681  0.34470577  0.41838032    -0.08700
C416        C  0.47265285  0.32391628  0.43475745    -0.06100
C417        C  0.00392149  0.32276679  0.44959355    -0.00100
C418        C  0.03314078  0.33429316  0.44095189    -0.08600
C419        C  0.06608475  0.32243558  0.44785981     0.61800
H420        H  0.05350739  0.36560838  0.41867922     0.12500
H421        H  0.45233024  0.30810172  0.43822155     0.12500
C422        C  0.44223185  0.34193927  0.40455600     0.62000
F423        F  0.09144797  0.33876602  0.43868803    -0.23100
F424        F  0.06931141  0.28994735  0.44368941    -0.20500
F425        F  0.06896291  0.32711395  0.46798843    -0.20100
F426        F  0.45295754  0.33797905  0.38533359    -0.20200
F427        F  0.42340185  0.36927976  0.40586648    -0.20500
F428        F  0.42255251  0.31569870  0.40911941    -0.23200
C429        C  0.12258485  0.46906510  0.43183058    -0.06000
C430        C  0.12263931  0.49635165  0.41948180    -0.00100
C431        C  0.14501683  0.52195250  0.42327888    -0.08700
C432        C  0.16567642  0.51951613  0.43968545    -0.06100
C433        C  0.16578844  0.49207617  0.45174206    -0.00100
C434        C  0.14424526  0.46617758  0.44773454    -0.08600
C435        C  0.14483687  0.43529541  0.45976880     0.61800
H436        H  0.10560335  0.44961196  0.42875546     0.12500
H437        H  0.18293299  0.53866569  0.44294930     0.12500
C438        C  0.14853197  0.55102833  0.40978524     0.62000
F439        F  0.13545452  0.89351839  0.44254651    -0.23100
F440        F  0.14282622  0.91777559  0.47183148    -0.20500
F441        F  0.17594922  0.42276379  0.45985240    -0.20100
F442        F  0.11631435  0.05829363  0.41235680    -0.20200
F443        F  0.15358022  0.54096383  0.39054796    -0.20500
F444        F  0.17457143  0.57058751  0.41504682    -0.23200
C445        C  0.36976424  0.01531593  0.42602727    -0.06000
C446        C  0.37911225  0.49475079  0.41643244    -0.00100
C447        C  0.37897226  0.47179541  0.43191788    -0.08700
C448        C  0.35523515  0.47436302  0.44673889    -0.06100
C449        C  0.33303695  0.49985526  0.44702206    -0.00100
C450        C  0.34625780  0.01793164  0.44093352    -0.08600
C451        C  0.33403395  0.05092216  0.44720969     0.61800
H452        H  0.37938102  0.03713914  0.41939508     0.12500
H453        H  0.35369700  0.45638127  0.45830829     0.12500
C454        C  0.40411313  0.44528378  0.43322267     0.62000
F455        F  0.34958209  0.07566111  0.43709453    -0.23100
F456        F  0.33943181  0.05555883  0.46713843    -0.20500
F457        F  0.30104964  0.05296159  0.44348855    -0.20100
F458        F  0.43505027  0.45820329  0.43097325    -0.20200
F459        F  0.39832150  0.42275811  0.41863183    -0.20500
F460        F  0.40297715  0.42959072  0.45124461    -0.23200
C461        C  0.13935565  0.52008488  0.57969508    -0.06000
C462        C  0.13002606  0.48953548  0.58708321    -0.00100
C463        C  0.14528892  0.46157804  0.57906294    -0.08700
C464        C  0.16544087  0.46500366  0.56242123    -0.06100
C465        C  0.17428213  0.49532807  0.55513571    -0.00100
C466        C  0.16261916  0.52347174  0.56451199    -0.08600
C467        C  0.15565974  0.05202344  0.54947940     0.61800
H468        H  0.11238768  0.03816211  0.57892596     0.12500
H469        H  0.17596601  0.44395998  0.55541934     0.12500
C470        C  0.14208605  0.42842659  0.58827886     0.62000
F471        F  0.16072855  0.58093246  0.56971084    -0.23100
F472        F  0.17266786  0.56279261  0.53946224    -0.20500
F473        F  0.18831669  0.05907607  0.55200919    -0.20100
F474        F  0.11040572  0.41813439  0.58700436    -0.20200
F475        F  0.14947804  0.93779067  0.61080807    -0.20500
F476        F  0.16120590  0.40564101  0.57886894    -0.23200
C477        C  0.36309955  0.01929610  0.57867963    -0.06000
C478        C  0.38611249  0.49504952  0.58048498    -0.00100
C479        C  0.38549819  0.47150617  0.56519933    -0.08700
C480        C  0.36338361  0.47543699  0.54957522    -0.06100
C481        C  0.34215872  0.50176165  0.54885728    -0.00100
C482        C  0.34100019  0.02228615  0.56310503    -0.08600
C483        C  0.32653261  0.05502780  0.55828878     0.61800
H484        H  0.36901472  0.04043260  0.58739654     0.12500
H485        H  0.36132361  0.45712180  0.53820476     0.12500
C486        C  0.40758221  0.44222345  0.56528046     0.62000
F487        F  0.33937939  0.07931271  0.57003770    -0.25100
F488        F  0.30840620  0.56191572  0.54554906    -0.20500
F489        F  0.33302055  0.06267076  0.53881111    -0.20100
F490        F  0.39859634  0.42166226  0.58042518    -0.20200
F491        F  0.41866979  0.93151449  0.57548062    -0.20500
F492        F  0.40567189  0.42501506  0.54777385    -0.23200
C493        C  0.46600380  0.12722890  0.57799626    -0.06000
C494        C  0.49589076  0.11277105  0.58288247    -0.00100
C495        C  0.02289926  0.11045140  0.56965612    -0.08700
C496        C  0.02096808  0.13392759  0.55467351    -0.06100
C497        C  0.49205081  0.15981191  0.55269283    -0.00100
C498        C  0.46352787  0.15036959  0.56287412    -0.08600
C499        C  0.43067778  0.16446187  0.55752970     0.61800
H500        H  0.44437513  0.12032533  0.58614643     0.12500
H501        H  0.04171725  0.13868523  0.54519054     0.12500
C502        C  0.05365387  0.09045356  0.57113059     0.62000
F503        F  0.40609376  0.15300208  0.56969406    -0.23100
F504        F  0.42288851  0.15627049  0.53832253    -0.20500
F505        F  0.93688277  0.19592608  0.56185845    -0.20100
F506        F  0.55330697  0.07181056  0.57243124    -0.20200
F507        F  0.07155962  0.10020640  0.58734733    -0.20500
F508        F  0.07307061  0.09397258  0.55453026    -0.23200
C509        C  0.47269492  0.36051705  0.57557883    -0.06000
C510        C  0.50286612  0.37428138  0.58087348    -0.00100
C511        C  0.02477904  0.36163123  0.57029379    -0.08700
C512        C  0.02209892  0.33812522  0.55541556    -0.06100
C513        C  0.49809044  0.32826131  0.54998912    -0.00100
C514        C  0.46975341  0.33778438  0.56026314    -0.08600
C515        C  0.43655663  0.32386314  0.55513875     0.61800
H516        H  0.45117341  0.36720722  0.58381796     0.12500
H517        H  0.04258041  0.33306213  0.54581374     0.12500
C518        C  0.05615995  0.38052065  0.57179443     0.62000
F519        F  0.41201218  0.33753352  0.56636790    -0.23100
F520        F  0.43620989  0.29094728  0.55844965    -0.20500
F521        F  0.42971876  0.32967618  0.53551158    -0.20100
F522        F  0.07271311  0.37013627  0.58830893    -0.20200
F523        F  0.04959238  0.41320465  0.57306597    -0.20500
F524        F  0.07604774  0.37600819  0.55548079    -0.23200
C525        C  0.10704477  0.27547561  0.21694936    -0.06000
C526        C  0.10939144  0.25620717  0.19997643    -0.00100
C527        C  0.08248483  0.23644506  0.19451113    -0.08700
C528        C  0.05524387  0.23473093  0.20718236    -0.06100
C529        C  0.05373421  0.25250636  0.22478187    -0.00100
C530        C  0.07964208  0.27393426  0.22952190    -0.08600
C531        C  0.07872288  0.29449382  0.24798962     0.61800
H532        H  0.12740371  0.29109329  0.22060413     0.12500
H533        H  0.03523749  0.21850226  0.20378409     0.12500
C534        C  0.08215434  0.21748826  0.17530810     0.62000
F535        F  0.07547857  0.27486510  0.26433642    -0.23100
F536        F  0.05272601  0.31541719  0.24696710    -0.20500
F537        F  0.10682032  0.31274861  0.25026574    -0.20100
F538        F  0.10343583  0.19186133  0.17651637    -0.20200
F539        F  0.09121130  0.23735465  0.15980090    -0.20500
F540        F  0.05151464  0.20518091  0.17118209    -0.23200
C541        C  0.44137252  0.26289184  0.21016675    -0.06000
C542        C  0.43699522  0.24801606  0.22865291    -0.00100
C543        C  0.40455452  0.24141804  0.23531378    -0.08700
C544        C  0.37858623  0.24621532  0.22222648    -0.06100
C545        C  0.38315995  0.26017999  0.20369380    -0.00100
C546        C  0.41481736  0.26966982  0.19766922    -0.08600
C547        C  0.42049438  0.28587870  0.17787328     0.61800
H548        H  0.46590755  0.26845068  0.20533205     0.12500
H549        H  0.35411073  0.23927443  0.22660646     0.12500
C550        C  0.39558247  0.22942833  0.25588112     0.62000
F551        F  0.45315167  0.29225334  0.17451606    -0.23100
F552        F  0.40405400  0.31489504  0.17733756    -0.20500
F553        F  0.40928541  0.26613748  0.16283520    -0.20100
F554        F  0.36628939  0.24267669  0.26187958    -0.20200
F555        F  0.41834354  0.23795594  0.26992999    -0.20500
F556        F  0.39205816  0.19622158  0.25550934    -0.23200
C557        C  0.28604845  0.13038639  0.07769051    -0.06000
C558        C  0.25551550  0.14473348  0.08107602    -0.00100
C559        C  0.22935272  0.13708564  0.06812722    -0.08700
C560        C  0.23458653  0.11462662  0.05284956    -0.06100
C561        C  0.26447713  0.09909645  0.05039787    -0.00100
C562        C  0.29088541  0.10729789  0.06275714    -0.08600
C563        C  0.32364951  0.09091998  0.06065176     0.61800
H564        H  0.30605817  0.13634788  0.08740644     0.12500
H565        H  0.21484321  0.10776790  0.04311733     0.12500
C566        C  0.19583545  0.15165346  0.07044687     0.62000
F567        F  0.34687988  0.10469125  0.07287728    -0.23100
F568        F  0.33469092  0.09348062  0.04142455    -0.20500
F569        F  0.32060944  0.05865746  0.06555108    -0.20100
F570        F  0.19825920  0.18498713  0.07077929    -0.20200
F571        F  0.18184763  0.14055764  0.08776263    -0.20500
F572        F  0.17532266  0.14320501  0.05507339    -0.23200
C573        C  0.22582637  0.40847934  0.05580457    -0.06000
C574        C  0.25472705  0.42555704  0.05236986    -0.00100
C575        C  0.28264473  0.41886028  0.06371653    -0.08700
C576        C  0.27996297  0.39657966  0.07925251    -0.06100
C577        C  0.25052300  0.38037963  0.08344332    -0.00100
C578        C  0.22330685  0.38532690  0.07090657    -0.08600
C579        C  0.19202999  0.36588066  0.07277452     0.61800
H580        H  0.20514076  0.41367005  0.04648886     0.12500
H581        H  0.30095566  0.39203782  0.08842068     0.12500
C582        C  0.31510751  0.43500958  0.05923235     0.62000
F583        F  0.17153833  0.37138689  0.05702133    -0.23100
F584        F  0.17562474  0.37438728  0.08983649    -0.20500
F585        F  0.19898719  0.33322447  0.07301102    -0.20100
F586        F  0.31266901  0.46801706  0.06180308    -0.20200
F587        F  0.32402086  0.42859059  0.03992913    -0.20500
F588        F  0.33959439  0.42395989  0.07142573    -0.23200
C589        C  0.28085022  0.12334513  0.92099536    -0.06000
C590        C  0.25108069  0.13921667  0.91793202    -0.00100
C591        C  0.22440026  0.13224358  0.93075192    -0.08700
C592        C  0.22863076  0.10922814  0.94580572    -0.06100
C593        C  0.25813602  0.09304672  0.94836113    -0.00100
C594        C  0.28485056  0.10027269  0.93594066    -0.08600
C595        C  0.31738489  0.08358452  0.93839980     0.61800
H596        H  0.30114709  0.12873707  0.91131567     0.12500
H597        H  0.20868044  0.10314001  0.95562868     0.12500
C598        C  0.19159296  0.14861559  0.92881385     0.62000
F599        F  0.34033896  0.09473047  0.92499132    -0.23100
F600        F  0.31359408  0.05072012  0.93555865    -0.20500
F601        F  0.32929927  0.08915390  0.95715664    -0.20100
F602        F  0.17708425  0.13932156  0.91130483    -0.20200
F603        F  0.19557326  0.18180862  0.92922092    -0.20500
F604        F  0.17060123  0.14030017  0.94403889    -0.23200
C605        C  0.28209755  0.38938957  0.92459595    -0.06000
C606        C  0.25132846  0.38003767  0.91727934    -0.00100
C607        C  0.22282125  0.39273601  0.92649752    -0.08700
C608        C  0.22650779  0.41426046  0.94241539    -0.06100
C609        C  0.25714219  0.42398422  0.94913596    -0.00100
C610        C  0.28551453  0.41139190  0.94030677    -0.08600
C611        C  0.31915042  0.42165173  0.94729015     0.61800
H612        H  0.30374269  0.37967146  0.91773408     0.12500
H613        H  0.20537426  0.42459488  0.94955923     0.12500
C614        C  0.18851567  0.38439555  0.91978148     0.62000
F615        F  0.34360193  0.40698629  0.93649025    -0.23100
F616        F  0.32320756  0.41332678  0.96686370    -0.20500
F617        F  0.32277644  0.45472050  0.94537955    -0.20100
F618        F  0.18328078  0.35151999  0.92148502    -0.20200
F619        F  0.18422392  0.39401156  0.90042898    -0.20500
F620        F  0.16502992  0.39971186  0.93104941    -0.23200
C621        C  0.47869045  0.15125982  0.73275687    -0.06000
C622        C  0.50230487  0.17566079  0.72911832    -0.00100
C623        C  0.02588697  0.17191371  0.71477848    -0.08700
C624        C  0.02387509  0.14342038  0.70340099    -0.06100
C625        C  0.50002425  0.11782131  0.70640103    -0.00100
C626        C  0.47721853  0.12241654  0.72175648    -0.08600
C627        C  0.45218565  0.09660029  0.72704830     0.61800
H628        H  0.46152430  0.15398530  0.74462442     0.12500
H629        H  0.04092901  0.13966925  0.69140775     0.12500
C630        C  0.05504072  0.19390991  0.71059383     0.62000
F631        F  0.43729598  0.10280736  0.74500995    -0.23100
F632        F  0.46712560  0.06683807  0.72843524    -0.20500
F633        F  0.42828448  0.09521978  0.71275920    -0.20100
F634        F  0.07988599  0.17730104  0.70124681    -0.20200
F635        F  0.06804362  0.20588224  0.72776650    -0.20500
F636        F  0.04633523  0.21896679  0.69835378    -0.23200
C637        C  0.47784338  0.31866801  0.72691346    -0.06000
C638        C  0.50493564  0.29849485  0.72489250    -0.00100
C639        C  0.03195898  0.31577190  0.72315274    -0.08700
C640        C  0.02996120  0.34307958  0.71091890    -0.06100
C641        C  0.50022742  0.35658807  0.70285969    -0.00100
C642        C  0.47492701  0.34762774  0.71614868    -0.08600
C643        C  0.44531104  0.36864007  0.71944492     0.61800
H644        H  0.45847825  0.31114493  0.73678139     0.12500
H645        H  0.05190357  0.35263211  0.70418903     0.12500
C646        C  0.06490005  0.30351574  0.72942867     0.62000
F647        F  0.42645773  0.35776522  0.73508873    -0.23100
F648        F  0.42608959  0.36846249  0.70274609    -0.20500
F649        F  0.45513454  0.39988578  0.72367026    -0.20100
F650        F  0.06871062  0.27188357  0.72354646    -0.20200
F651        F  0.06704568  0.30569096  0.74973766    -0.20500
F652        F  0.09015484  0.32156462  0.72143574    -0.23200
C653        C  0.08387120  0.24661228  0.76941220    -0.06000
C654        C  0.05407703  0.24933589  0.77959760    -0.00100
C655        C  0.05471608  0.25672883  0.80004957    -0.08700
C656        C  0.08508077  0.26060378  0.80945897    -0.06100
C657        C  0.11442751  0.25698231  0.79913323    -0.00100
C658        C  0.11402064  0.25025174  0.77878857    -0.08600
C659        C  0.14540198  0.24688234  0.76711302     0.61800
H660        H  0.08340706  0.24118872  0.75389342     0.12500
H661        H  0.08621513  0.26597547  0.82509641     0.12500
C662        C  0.02393869  0.26062355  0.81201017     0.62000
F663        F  0.13965641  0.24018365  0.74739298    -0.23100
F664        F  0.16374598  0.22204485  0.77479568    -0.20500
F665        F  0.16304305  0.27537571  0.76825467    -0.20100
F666        F  0.00270224  0.23528505  0.80832999    -0.20200
F667        F  0.00984894  0.28963010  0.80702616    -0.20500
F668        F  0.03012689  0.26115253  0.83208961    -0.23200
C669        C  0.44056504  0.25984061  0.79151243    -0.06000
C670        C  0.43696600  0.25512497  0.77110643    -0.00100
C671        C  0.40523397  0.25479669  0.76283006    -0.08700
C672        C  0.37817040  0.25546329  0.77554043    -0.06100
C673        C  0.38179591  0.25853391  0.79596514    -0.00100
C674        C  0.41331051  0.26188768  0.80414757    -0.08600
C675        C  0.41793092  0.26692766  0.82616404     0.61800
H676        H  0.46490447  0.26041429  0.79759858     0.12500
H677        H  0.35385534  0.25396684  0.76940321     0.12500
C678        C  0.39837949  0.25429913  0.74082191     0.62000
F679        F  0.45049627  0.26907654  0.83119021    -0.23100
F680        F  0.40424196  0.24139603  0.83646107    -0.20500
F681        F  0.40303940  0.29528429  0.83192407    -0.20100
F682        F  0.38358869  0.22533822  0.73585480    -0.20200
F683        F  0.42597361  0.25821028  0.72936727    -0.20500
F684        F  0.37751876  0.27928840  0.73627417    -0.23200
C685        C  0.32416687  0.47305983  0.72502356    -0.06000
C686        C  0.30507174  0.50067462  0.72232471    -0.00100
C687        C  0.31695824  0.02433330  0.71107610    -0.08700
C688        C  0.34653686  0.01960319  0.70133782    -0.06100
C689        C  0.36300002  0.49139229  0.70019551    -0.00100
C690        C  0.35322582  0.46805046  0.71432570    -0.08600
C691        C  0.37407534  0.43890074  0.71883983     0.61800
H692        H  0.31710866  0.45619589  0.73636385     0.12500
H693        H  0.35560970  0.03895363  0.69202983     0.12500
C694        C  0.29950274  0.05563417  0.70616409     0.62000
F695        F  0.35228139  0.91217131  0.72888835    -0.23100
F696        F  0.39932535  0.93587091  0.72048224    -0.20500
F697        F  0.37492359  0.41867875  0.70260504    -0.20100
F698        F  0.26918199  0.05855287  0.71472769    -0.20200
F699        F  0.28819869  0.55253929  0.68208353    -0.20500
F700        F  0.31516348  0.58062200  0.70527572    -0.23200
C701        C  0.15994635  0.48257263  0.69653205    -0.06000
C702        C  0.13033012  0.48864462  0.70598988    -0.00100
C703        C  0.12927501  0.99990196  0.72444049    -0.08700
C704        C  0.15878873  0.00274958  0.73470259    -0.06100
C705        C  0.19007730  0.49829118  0.72607299    -0.00100
C706        C  0.19005951  0.48769904  0.70600388    -0.08600
C707        C  0.22083952  0.48464228  0.69372275     0.61800
H708        H  0.15915816  0.47535601  0.68116766     0.12500
H709        H  0.15828797  0.00943046  0.75014812     0.12500
C710        C  0.09719209  0.00615004  0.73488731     0.62000
F711        F  0.24055615  0.46068262  0.70097165    -0.23100
F712        F  0.23724780  0.51362278  0.69385273    -0.20500
F713        F  0.21581080  0.98067682  0.67375889    -0.20100
F714        F  0.08034856  0.47521552  0.73693438    -0.20200
F715        F  0.08195215  0.03235250  0.72640264    -0.20500
F716        F  0.10146613  0.01265136  0.75476746    -0.23200
C717        C  0.26855103  0.09977492  0.80378567    -0.06000
C718        C  0.24882883  0.12543212  0.79789438    -0.00100
C719        C  0.23134613  0.12312020  0.78011316    -0.08700
C720        C  0.23376059  0.09465641  0.76896846    -0.06100
C721        C  0.25091830  0.06722168  0.77560937    -0.00100
C722        C  0.27090617  0.07098704  0.79279564    -0.08600
C723        C  0.29449487  0.04595281  0.80085579     0.61800
H724        H  0.28230775  0.10230995  0.81734125     0.12500
H725        H  0.22244801  0.09439704  0.75467240     0.12500
C726        C  0.21031268  0.15067861  0.77284020     0.62000
F727        F  0.27956839  0.02915531  0.81604547    -0.23100
F728        F  0.32193363  0.06114293  0.80835897    -0.20500
F729        F  0.30539825  0.02442614  0.78682141    -0.20100
F730        F  0.22858645  0.17878361  0.77168889    -0.20200
F731        F  0.18465204  0.15518588  0.78576725    -0.20500
F732        F  0.19740994  0.14452267  0.75434667    -0.23200
C733        C  0.27010115  0.42698791  0.77096227    -0.06000
C734        C  0.24633301  0.45018113  0.77527103    -0.00100
C735        C  0.22236470  0.44291946  0.78986911    -0.08700
C736        C  0.22404295  0.41330307  0.79995443    -0.06100
C737        C  0.24874203  0.39082272  0.79628654    -0.00100
C738        C  0.27207683  0.39754926  0.78135446    -0.08600
C739        C  0.29899303  0.37392267  0.77634549     0.61800
H740        H  0.28806679  0.43264625  0.75987114     0.12500
H741        H  0.20646148  0.40805320  0.81146670     0.12500
C742        C  0.19505878  0.46590019  0.79533299     0.62000
F743        F  0.31598686  0.38307095  0.75957223    -0.23100
F744        F  0.28590212  0.34355132  0.77299018    -0.20500
F745        F  0.32088427  0.37245763  0.79176497    -0.20100
F746        F  0.18277647  0.48056097  0.77871040    -0.20200
F747        F  0.20641260  0.48912217  0.80829610    -0.20500
F748        F  0.16951310  0.44980392  0.80447552    -0.23200
C749        C  0.08851909  0.23705168  0.05973134    -0.06000
C750        C  0.08404817  0.26627270  0.04987889    -0.00100
C751        C  0.10059697  0.29426421  0.05640349    -0.08700
C752        C  0.12286907  0.29157346  0.07212089    -0.06100
C753        C  0.12735625  0.26225271  0.08232537    -0.00100
C754        C  0.10874145  0.23466469  0.07637806    -0.08600
C755        C  0.10772066  0.20347118  0.08815854     0.61800
H756        H  0.07447101  0.21637474  0.05476910     0.12500
H757        H  0.13614259  0.31278081  0.07695750     0.12500
C758        C  0.09337568  0.32691859  0.04729505     0.62000
F759        F  0.08514065  0.18165699  0.08076625    -0.23100
F760        F  0.09915352  0.21010165  0.10749694    -0.20500
F761        F  0.13761788  0.18866537  0.08760290    -0.20100
F762        F  0.06104727  0.33459632  0.05028372    -0.20200
F763        F  0.09965857  0.32610838  0.02724053    -0.20500
F764        F  0.11192843  0.35126163  0.05559848    -0.23200
C765        C  0.39367486  0.28836548  0.05339508    -0.06000
C766        C  0.41253105  0.26048953  0.05110144    -0.00100
C767        C  0.40699326  0.23358082  0.06349587    -0.08700
C768        C  0.38520327  0.23683683  0.07926872    -0.06100
C769        C  0.36677354  0.26494666  0.08202605    -0.00100
C770        C  0.36945594  0.29041430  0.06807817    -0.08600
C771        C  0.34572756  0.31838066  0.06765665     0.61800
H772        H  0.39759184  0.30819869  0.04323703     0.12500
H773        H  0.38221184  0.21699958  0.08950675     0.12500
C774        C  0.42289001  0.20112874  0.05958590     0.62000
F775        F  0.34822080  0.33569526  0.05023071    -0.23100
F776        F  0.35182144  0.33925469  0.08315346    -0.20500
F777        F  0.31414366  0.30675992  0.06900688    -0.20100
F778        F  0.45621422  0.20340450  0.06181182    -0.20200
F779        F  0.41588347  0.19125215  0.04055206    -0.20500
F780        F  0.41156348  0.17750982  0.07237186    -0.23200
C781        C  0.07883789  0.23671069  0.93487197    -0.06000
C782        C  0.07756183  0.26443628  0.94667880    -0.00100
C783        C  0.09853856  0.29080058  0.94264649    -0.08700
C784        C  0.12154509  0.28769352  0.92737072    -0.06100
C785        C  0.12344703  0.25966573  0.91567000    -0.00100
C786        C  0.10091650  0.23398537  0.91908342    -0.08600
C787        C  0.09902810  0.20424028  0.90596400     0.61800
H788        H  0.06200635  0.21718584  0.93813921     0.12500
H789        H  0.13818236  0.30742002  0.92436751     0.12500
C790        C  0.09573706  0.32243482  0.95389969     0.62000
F791        F  0.07216302  0.18516488  0.91034395    -0.23100
F792        F  0.12645522  0.18563545  0.90855493    -0.20500
F793        F  0.09652875  0.21337963  0.88639635    -0.20100
F794        F  0.10162441  0.31760741  0.97373050    -0.20200
F795        F  0.06473974  0.33467571  0.95161686    -0.20500
F796        F  0.11776413  0.34534869  0.94714708    -0.23200
C797        C  0.40557543  0.27658031  0.94304949    -0.06000
C798        C  0.41751713  0.24556991  0.94709893    -0.00100
C799        C  0.40629297  0.21899019  0.93575921    -0.08700
C800        C  0.38479583  0.22475399  0.92015752    -0.06100
C801        C  0.37294437  0.25574002  0.91582238    -0.00100
C802        C  0.38304796  0.28222720  0.92776080    -0.08600
C803        C  0.36997141  0.31611051  0.92484438     0.61800
H804        H  0.41386488  0.29638115  0.95224859     0.12500
H805        H  0.37704269  0.20454869  0.91115218     0.12500
C806        C  0.41607447  0.18440635  0.94019696     0.62000
F807        F  0.38073699  0.33717063  0.93934556    -0.23100
F808        F  0.33631357  0.31562102  0.92558898    -0.20500
F809        F  0.38028469  0.32802790  0.90681217    -0.20100
F810        F  0.41208129  0.17795066  0.96007266    -0.20200
F811        F  0.44818608  0.17981608  0.93482442    -0.20500
F812        F  0.39725243  0.16221747  0.92992333    -0.23200
C813        C  0.30927818  0.49241988  0.29112867    -0.06000
C814        C  0.31334697  0.49799058  0.27084454    -0.00100
C815        C  0.34270015  0.99525028  0.26597551    -0.08700
C816        C  0.36876082  0.99317165  0.27930765    -0.06100
C817        C  0.36794948  0.49174713  0.29582986    -0.00100
C818        C  0.33614954  0.48906814  0.30381689    -0.08600
C819        C  0.33067647  0.48397418  0.32574933     0.61800
H820        H  0.28481819  0.49224203  0.29713705     0.12500
H821        H  0.39353271  0.99368308  0.27373191     0.12500
C822        C  0.35133243  0.99573341  0.24417830     0.62000
F823        F  0.29797417  0.48038412  0.33029201    -0.23100
F824        F  0.34267398  0.51024822  0.33610495    -0.20500
F825        F  0.34649416  0.45639179  0.33185105    -0.20100
F826        F  0.36684418  0.02456001  0.23973896    -0.20200
F827        F  0.32466487  0.99210825  0.23200192    -0.20500
F828        F  0.37228373  0.97054610  0.24007712    -0.23200
C829        C  0.17889757  0.97454721  0.27752969    -0.06000
C830        C  0.20084104  0.50321547  0.28069384    -0.00100
C831        C  0.19271159  0.52559779  0.29563845    -0.08700
C832        C  0.16311628  0.52162553  0.30580981    -0.06100
C833        C  0.14257072  0.49480270  0.30252533    -0.00100
C834        C  0.14891280  0.96908502  0.28722795    -0.08600
C835        C  0.12876505  0.93951314  0.28184906     0.61800
H836        H  0.18755608  0.95732741  0.26674135     0.12500
H837        H  0.15628927  0.53954480  0.31671487     0.12500
C838        C  0.21484464  0.55349017  0.30153892     0.62000
F839        F  0.14234248  0.92251469  0.26627733    -0.23100
F840        F  0.09785439  0.94881281  0.27627898    -0.20500
F841        F  0.12876169  0.42198646  0.30117770    -0.20100
F842        F  0.24621311  0.55005068  0.29439000    -0.20200
F843        F  0.21687223  0.55510031  0.32189667    -0.20500
F844        F  0.20216281  0.58211599  0.29458612    -0.23200
C845        C  0.22168662  0.11449584  0.20822831    -0.06000
C846        C  0.25146935  0.12879807  0.20287322    -0.00100
C847        C  0.28071930  0.11363831  0.20905084    -0.08700
C848        C  0.27860090  0.08502483  0.22021413    -0.06100
C849        C  0.24878272  0.07105600  0.22627826    -0.00100
C850        C  0.21953528  0.08526205  0.21881132    -0.08600
C851        C  0.18519034  0.07160479  0.22129731     0.61800
H852        H  0.19937778  0.12593130  0.20351727     0.12500
H853        H  0.30089109  0.07270146  0.22352011     0.12500
C854        C  0.31441985  0.12697084  0.20407561     0.62000
F855        F  0.16732559  0.07661416  0.20428563    -0.23100
F856        F  0.16981864  0.08740340  0.23668101    -0.20500
F857        F  0.18440712  0.03885203  0.22467096    -0.20100
F858        F  0.31739170  0.15825723  0.21107819    -0.20200
F859        F  0.31934510  0.12631585  0.18387387    -0.20500
F860        F  0.33906787  0.10913496  0.21257070    -0.23200
C861        C  0.27370602  0.43057205  0.22787567    -0.06000
C862        C  0.24487300  0.44843251  0.22819669    -0.00100
C863        C  0.21626964  0.43489603  0.21989901    -0.08700
C864        C  0.21856036  0.40567639  0.20954127    -0.06100
C865        C  0.24800825  0.38889604  0.20769888    -0.00100
C866        C  0.27579600  0.40062868  0.21806237    -0.08600
C867        C  0.30754177  0.38209727  0.21906673     0.61800
H868        H  0.29498431  0.44071818  0.23501680     0.12500
H869        H  0.19679918  0.39614190  0.20258600     0.12500
C870        C  0.18249041  0.44906302  0.22189086     0.62000
F871        F  0.32785403  0.39424291  0.23361823    -0.23100
F872        F  0.32381857  0.38431755  0.20123056    -0.20500
F873        F  0.30140600  0.35001315  0.22346566    -0.20100
F874        F  0.18168574  0.47707324  0.23286346    -0.20200
F875        F  0.16243476  0.42660786  0.23100444    -0.20500
F876        F  0.17018611  0.45553006  0.20335875    -0.23200
C877        C  0.24990914  0.54028539  0.23778310     0.86200
C878        C  0.28265892  0.53496332  0.24854625    -0.54000
C879        C  0.28206061  0.00569041  0.26109366     0.09200
C880        C  0.24999331  0.98634067  0.25959132     0.20100
C881        C  0.24604056  0.50871883  0.22579378    -0.54700
C882        C  0.24458200  0.98141187  0.23728531     0.09300
C883        C  0.22440071  0.53825024  0.25432600    -0.54300
C884        C  0.22348936  0.01035592  0.26607651     0.09800
H885        H  0.30378346  0.55061385  0.24727929     0.14400
H886        H  0.25000394  0.96348625  0.26815219     0.00100
H887        H  0.24394610  0.01008358  0.21079934     0.14700
H888        H  0.20634075  0.55686303  0.25682822     0.14400
N889        N  0.44923030  0.74785266  0.00089275    -0.36900
N890        N  0.99838387  0.74606544  0.95403035    -0.57400
N891        N  0.04749865  0.76007782  0.99843479    -0.36900
N892        N  0.99636835  0.75974663  0.02854087    -0.57400
C893        C  0.43012600  0.74633683  0.98471616     0.26700
C894        C  0.43012719  0.75569626  0.01635083     0.26700
C895        C  0.06703930  0.75712713  0.98244054     0.26700
C896        C  0.06658406  0.76185747  0.01461707     0.26700
C897        C  0.47317744  0.72780126  0.96273072     0.35300
C898        C  0.02596477  0.73356078  0.96156282     0.35300
C899        C  0.47346309  0.76366208  0.04200691     0.35300
C900        C  0.02242956  0.76263438  0.04059084     0.35300
C901        C  0.39833928  0.75346584  0.98980967    -0.22100
C902        C  0.39818836  0.75869131  0.00991992    -0.22100
C903        C  0.09925465  0.75810848  0.98823083    -0.22100
C904        C  0.09899422  0.76074410  0.00860839    -0.22100
C905        C  0.48507382  0.70198900  0.97340479    -0.23200
C906        C  0.01935170  0.70609313  0.97249364    -0.23200
C907        C  0.48320670  0.77008713  0.06119315    -0.23200
C908        C  0.01201833  0.76346555  0.06009333    -0.23200
C909        C  0.44164067  0.73944870  0.96555222    -0.18500
C910        C  0.44060308  0.76012041  0.03605827    -0.18500
C911        C  0.05566635  0.76347164  0.03458272    -0.18500
C912        C  0.05517168  0.75102145  0.96321115    -0.18500
H913        H  0.37746513  0.75441427  0.98013058     0.14400
H914        H  0.37704668  0.76473025  0.01870688     0.14400
H915        H  0.12053141  0.75556069  0.97891860     0.14400
H916        H  0.12029173  0.76121136  0.01796264     0.14400
H917        H  0.47101905  0.68473562  0.98193709     0.12600
H918        H  0.03628506  0.69261664  0.98144225     0.12600
H919        H  0.46792565  0.77355177  0.07405203     0.12600
H920        H  0.02680558  0.76572353  0.07321792     0.12600
H921        H  0.47396053  0.74320662  0.00118252     0.25900
H922        H  0.02233098  0.76127271  0.99774326     0.25900
C923        C  0.25141328  0.54063747  0.76142845     0.86200
C924        C  0.22129681  0.53647833  0.74778905    -0.54000
C925        C  0.21893188  0.00613402  0.73733762     0.09200
C926        C  0.24820074  0.98382912  0.74120102     0.20100
C927        C  0.24928887  0.51064949  0.77461804    -0.54700
C928        C  0.24641378  0.97719685  0.76352407     0.09300
C929        C  0.28044237  0.53526323  0.74787459    -0.54300
C930        C  0.27846946  0.00571600  0.73826832     0.09800
H931        H  0.20122399  0.55325311  0.74718114     0.14400
H932        H  0.24847919  0.96123345  0.73255868     0.00100
H933        H  0.24384568  0.00334543  0.79086611     0.14700
H934        H  0.30010846  0.55278788  0.74635687     0.14400
C935        C  0.00038825  0.71039712  0.73994103     0.86200
C936        C  0.46962632  0.71906329  0.74838198    -0.54000
C937        C  0.46917326  0.74715692  0.75885278     0.09200
C938        C  0.00025597  0.76334206  0.76139460     0.20100
C939        C  0.00473612  0.74186067  0.72801457    -0.54700
C940        C  0.00520016  0.76942035  0.73920653     0.09300
C941        C  0.02659872  0.71158089  0.75598935    -0.54300
C942        C  0.02681438  0.73902195  0.76717987     0.09800
H943        H  0.44797952  0.70406427  0.74757221     0.14400
H944        H  0.00023360  0.78574903  0.77043416     0.00100
H945        H  0.00572962  0.74255746  0.71203822     0.14700
H946        H  0.04434404  0.69251306  0.75792431     0.14400
N947        N  0.25240759  0.96216986  0.00219253    -0.36900
N948        N  0.26068422  0.50821066  0.96990729    -0.57400
N949        N  0.25942981  0.55814158  0.00006450    -0.36900
N950        N  0.25834697  0.50872977  0.03079818    -0.57400
C951        C  0.25640923  0.94249497  0.98636145     0.26700
C952        C  0.25794168  0.94443332  0.01859121     0.26700
C953        C  0.26613776  0.57637045  0.98397453     0.26700
C954        C  0.26578979  0.57639545  0.01619695     0.26700
C955        C  0.24769088  0.98361719  0.96018087     0.35300
C956        C  0.25714751  0.53428471  0.95812709     0.35300
C957        C  0.25395059  0.98857097  0.04361949     0.35300
C958        C  0.25287739  0.53522099  0.04193394     0.35300
C959        C  0.26389749  0.91168581  0.99283556    -0.22100
C960        C  0.26471180  0.91287058  0.01315490    -0.22100
C961        C  0.27628938  0.60683639  0.98996193    -0.22100
C962        C  0.27628637  0.60678483  0.01028577    -0.22100
C963        C  0.23714806  0.99287726  0.94164217    -0.23200
C964        C  0.25074983  0.52452450  0.93894959    -0.23200
C965        C  0.24681913  0.99996607  0.06237914    -0.23200
C966        C  0.24197394  0.52627075  0.06053950    -0.23200
C967        C  0.25201755  0.95128145  0.96630336    -0.18500
C968        C  0.25541681  0.95554801  0.03834305    -0.18500
C969        C  0.25993973  0.56722742  0.03603789    -0.18500
C970        C  0.26179838  0.56675495  0.96406623    -0.18500
H971        H  0.26809706  0.89046185  0.98386622     0.14400
H972        H  0.26972131  0.89274407  0.02282991     0.14400
H973        H  0.28291246  0.62706583  0.98065360     0.14400
H974        H  0.28275417  0.62701900  0.01964804     0.14400
H975        H  0.22912047  0.97733774  0.92973105     0.12600
H976        H  0.24733061  0.53964853  0.92611936     0.12600
H977        H  0.24026352  0.98594244  0.07527405     0.12600
H978        H  0.23600230  0.54196434  0.07279825     0.12600
H979        H  0.24322498  0.98543955  0.00197647     0.25900
H980        H  0.24741503  0.53604782  0.00003624     0.25900
N981        N  0.23603261  0.82728863  0.87845064    -0.06400
N982        N  0.22446294  0.84404773  0.89350958    -0.58500
N983        N  0.26783438  0.83021821  0.83289426    -0.06100
N984        N  0.27859958  0.84990944  0.81901103    -0.60600
N985        N  0.23581830  0.82911530  0.83277500    -0.05600
N986        N  0.22439980  0.84801213  0.81874023    -0.58500
N987        N  0.26805857  0.82826189  0.87844183    -0.05300
N988        N  0.27869385  0.84576869  0.89348717    -0.61000
C989        C  0.25122855  0.85532836  0.90296755     0.95800
C990        C  0.25138030  0.86072370  0.81005698     0.95600
N991        N  0.32412064  0.74611123  0.83089881    -0.06600
N992        N  0.34434024  0.73572920  0.81712690    -0.59100
N993        N  0.32405542  0.77571241  0.87704801    -0.04700
N994        N  0.34296827  0.78582882  0.89161028    -0.60300
N995        N  0.32425058  0.74401124  0.87607092    -0.06600
N996        N  0.34315454  0.73199191  0.88981859    -0.59300
N997        N  0.32435502  0.77789923  0.83160956    -0.04300
N998        N  0.34505125  0.78965233  0.81837222    -0.60400
Mn999      Mn  0.29671085  0.80389673  0.85501277     1.18400
C1000       C  0.35700961  0.76305123  0.80924709     0.97900
C1001       C  0.35481178  0.75819095  0.89946269     0.98600
N1002       N  0.18090834  0.77369420  0.83236713    -0.06600
N1003       N  0.15763271  0.78401015  0.82051714    -0.62900
N1004       N  0.18287992  0.74035489  0.87692922    -0.05400
N1005       N  0.16253572  0.72803124  0.89006363    -0.63600
N1006       N  0.18202366  0.77208660  0.87747149    -0.06100
N1007       N  0.16103820  0.78186364  0.89099549    -0.63200
N1008       N  0.18206716  0.74194255  0.83194135    -0.05000
N1009       N  0.15981015  0.73027707  0.81981382    -0.63900
Mn1010     Mn  0.20822432  0.80133814  0.85521005     1.10700
C1011       C  0.14484355  0.75670060  0.81250470     0.99100
C1012       C  0.14890270  0.75411344  0.89875547     0.99200
N1013       N  0.27094321  0.68926409  0.87598573    -0.06100
N1014       N  0.28235345  0.67177623  0.89072241    -0.61500
N1015       N  0.23852201  0.69024400  0.83050413    -0.05400
N1016       N  0.22764054  0.67126845  0.81627610    -0.58200
N1017       N  0.27050777  0.69096365  0.83040592    -0.06700
N1018       N  0.28196126  0.67238746  0.81618504    -0.61100
N1019       N  0.23897254  0.68856876  0.87607327    -0.05700
N1020       N  0.22813940  0.67062696  0.89080265    -0.58200
Mn1021     Mn  0.29801149  0.71696545  0.85326822     1.20200
Mn1022     Mn  0.21027408  0.71462025  0.85380992     1.10100
Cl1023     Cl  0.25328941  0.75925868  0.85426187    -0.86200
C1024       C  0.25532266  0.66026147  0.89999060     0.96100
C1025       C  0.25495391  0.66059391  0.80724736     0.95900
N1026       N  0.17697941  0.74193981  0.16749683    -0.06400
N1027       N  0.15417861  0.72923527  0.17883692    -0.58500
N1028       N  0.17742928  0.77600058  0.12336190    -0.06100
N1029       N  0.15737250  0.78680329  0.10966753    -0.60600
N1030       N  0.17863330  0.74427830  0.12268418    -0.05600
N1031       N  0.15951272  0.73302827  0.10862471    -0.58500
N1032       N  0.17603985  0.77367846  0.16838805    -0.05300
N1033       N  0.15241187  0.78302940  0.18033456    -0.61000
C1034       C  0.13892963  0.75499004  0.18673207     0.95800
C1035       C  0.14622646  0.75967277  0.10054839     0.95600
N1036       N  0.26319926  0.83181998  0.12509207    -0.06600
N1037       N  0.27431109  0.84997744  0.11054507    -0.59100
N1038       N  0.23081349  0.82919557  0.17057818    -0.04700
N1039       N  0.21943575  0.84793785  0.18479740    -0.60300
N1040       N  0.26284266  0.82994607  0.17062995    -0.06600
N1041       N  0.27362704  0.84913256  0.18482664    -0.59300
N1042       N  0.23123737  0.83110198  0.12493004    -0.04300
N1043       N  0.22007231  0.84886205  0.11030624    -0.60400
Mn1044     Mn  0.20332365  0.80330292  0.14692773     1.18400
C1045       C  0.24715593  0.86050311  0.10132025     0.97900
C1046       C  0.24637330  0.86013270  0.19380558     0.98600
N1047       N  0.23433071  0.69185633  0.12191211    -0.06600
N1048       N  0.22406822  0.67392030  0.10700297    -0.62900
N1049       N  0.26491946  0.69061326  0.16778733    -0.05400
N1050       N  0.27580157  0.67115987  0.18168501    -0.63600
N1051       N  0.23292979  0.68987129  0.16734811    -0.06100
N1052       N  0.22148393  0.66995184  0.18090725    -0.63200
N1053       N  0.26628503  0.69263659  0.12229603    -0.05000
N1054       N  0.27833760  0.67534477  0.10762879    -0.63900
Mn1055     Mn  0.20533359  0.71638041  0.14486257     1.10700
C1056       C  0.25175014  0.66395051  0.09801863     0.99100
C1057       C  0.24843574  0.65871717  0.18997508     0.99200
N1058       N  0.31883698  0.77760113  0.16933055    -0.06100
N1059       N  0.34002258  0.78846065  0.18243546    -0.61500
N1060       N  0.31859346  0.74808016  0.12361544    -0.05400
N1061       N  0.33608287  0.73805633  0.10850637    -0.58200
N1062       N  0.31815119  0.77979052  0.12415620    -0.06700
N1063       N  0.33544819  0.79189888  0.10943650    -0.61100
N1064       N  0.31890975  0.74582098  0.16887802    -0.05700
N1065       N  0.33993538  0.73446231  0.18176701    -0.58200
Mn1066     Mn  0.29136079  0.80554759  0.14739238     1.20200
Mn1067     Mn  0.29284289  0.71861857  0.14573375     1.10100
Cl1068     Cl  0.24817802  0.76096676  0.14633490    -0.86200
C1069       C  0.35273170  0.76126402  0.19020455     0.96100
C1070       C  0.34643251  0.76559852  0.09966080     0.95900
N1071       N  0.48464559  0.55971715  0.67034349    -0.06400
N1072       N  0.47328636  0.57915049  0.68418186    -0.58500
N1073       N  0.01686956  0.55703898  0.62460329    -0.06100
N1074       N  0.02733641  0.57420480  0.60937512    -0.60600
N1075       N  0.48605811  0.56045352  0.62508062    -0.05600
N1076       N  0.47436431  0.57759835  0.61042164    -0.58500
N1077       N  0.01741158  0.55853662  0.67014141    -0.05300
N1078       N  0.02868390  0.57938498  0.68327520    -0.61000
C1079       C  0.50037945  0.59082101  0.69309153     0.95800
C1080       C  0.50099524  0.58910384  0.60098178     0.95600
N1081       N  0.06709420  0.97303753  0.62502578    -0.06600
N1082       N  0.08579426  0.96161749  0.61083688    -0.59100
N1083       N  0.07071777  0.50371832  0.67057579    -0.04700
N1084       N  0.08922221  0.51483317  0.68499038    -0.60300
N1085       N  0.06821240  0.97356221  0.67023516    -0.06600
N1086       N  0.08869732  0.96290266  0.68370643    -0.59300
N1087       N  0.07195803  0.50395830  0.62523046    -0.04300
N1088       N  0.09233004  0.51529825  0.61176679    -0.60400
Mn1089     Mn  0.04492981  0.53148562  0.64763499     1.18400
C1090       C  0.09791194  0.98821599  0.60184931     0.97900
C1091       C  0.10034069  0.99016689  0.69228684     0.98600
N1092       N  0.43287583  0.50732858  0.62359618    -0.06600
N1093       N  0.41744479  0.51941430  0.60829583    -0.62900
N1094       N  0.42896039  0.97360299  0.67006027    -0.05400
N1095       N  0.40781644  0.96252005  0.68319091    -0.63600
N1096       N  0.43000466  0.50569038  0.66880552    -0.06100
N1097       N  0.40851814  0.51684915  0.68151598    -0.63200
N1098       N  0.42739880  0.97409691  0.62498938    -0.05000
N1099       N  0.41007203  0.96267440  0.61018386    -0.63900
Mn1100     Mn  0.45780917  0.53388399  0.64712575     1.10700
C1101       C  0.39954654  0.98935446  0.60078600     0.99100
C1102       C  0.39544392  0.98945215  0.69167295     0.99200
N1103       N  0.01331274  0.91893983  0.67066973    -0.06100
N1104       N  0.02494190  0.89938526  0.68423759    -0.61500
N1105       N  0.48086942  0.92173980  0.62313837    -0.05400
N1106       N  0.46827052  0.90453489  0.60862157    -0.58200
N1107       N  0.01243131  0.91935610  0.62501274    -0.06700
N1108       N  0.02321634  0.90217059  0.60990628    -0.61100
N1109       N  0.48464174  0.92061371  0.66846682    -0.05700
N1110       N  0.47500422  0.90102782  0.68270538    -0.58200
Mn1111     Mn  0.04087020  0.94552184  0.64780417     1.20200
Mn1112     Mn  0.45477924  0.94673999  0.64685650     1.10100
Cl1113     Cl  0.49805714  0.99110290  0.64603080    -0.86200
C1114       C  0.50302898  0.88974539  0.69048450     0.96100
C1115       C  0.49438424  0.89450454  0.59811578     0.95900
N1116       N  0.07130226  0.97229154  0.33228059    -0.06400
N1117       N  0.09343329  0.96239086  0.31941588    -0.58500
N1118       N  0.07109554  0.50968030  0.37830418    -0.06100
N1119       N  0.08851738  0.52191114  0.39288179    -0.60600
N1120       N  0.06874296  0.97029666  0.37745103    -0.05600
N1121       N  0.08671256  0.95854853  0.39179802    -0.58500
N1122       N  0.07409810  0.50845733  0.33319764    -0.05300
N1123       N  0.09633741  0.52002656  0.32094792    -0.61000
C1124       C  0.10598506  0.99006356  0.31173078     0.95800
C1125       C  0.09792999  0.98512070  0.40127004     0.95600
N1126       N  0.48284941  0.56116499  0.37626995    -0.06600
N1127       N  0.47041873  0.57729493  0.39128513    -0.59100
N1128       N  0.01672004  0.55991606  0.33156313    -0.04700
N1129       N  0.02712375  0.58002502  0.31775612    -0.60300
N1130       N  0.48517140  0.56043584  0.33088789    -0.06600
N1131       N  0.47373478  0.57911792  0.31690339    -0.59300
N1132       N  0.01522693  0.56080375  0.37696823    -0.04300
N1133       N  0.02538720  0.57840359  0.39198226    -0.60400
Mn1134     Mn  0.04487895  0.53551574  0.35488256     1.18400
C1135       C  0.49671967  0.58808482  0.40140250     0.97900
C1136       C  0.50055692  0.59268201  0.30890730     0.98600
N1137       N  0.01475843  0.91668262  0.37666495    -0.06600
N1138       N  0.02528291  0.89823150  0.39121522    -0.62900
N1139       N  0.48545513  0.91979626  0.33152224    -0.05400
N1140       N  0.47531614  0.89977795  0.31764071    -0.63600
N1141       N  0.01616254  0.91822659  0.33139020    -0.06100
N1142       N  0.02808638  0.89779138  0.31840849    -0.63200
N1143       N  0.48267654  0.91794837  0.37661606    -0.05000
N1144       N  0.47003434  0.89951970  0.39051625    -0.63900
Mn1145     Mn  0.04334099  0.94374024  0.35433580     1.10700
C1146       C  0.49611033  0.88766365  0.40006496     0.99100
C1147       C  0.50312087  0.88767632  0.30990142     0.99200
N1148       N  0.43053847  0.50726785  0.33003151    -0.06100
N1149       N  0.40985092  0.51837350  0.31682483    -0.61500
N1150       N  0.42988947  0.97102985  0.37697738    -0.05400
N1151       N  0.41336833  0.95913615  0.39199599    -0.58200
N1152       N  0.42973885  0.50778970  0.37514155    -0.06700
N1153       N  0.41252081  0.51960976  0.38984457    -0.61100
N1154       N  0.42895543  0.97282305  0.33190495    -0.05700
N1155       N  0.40626953  0.96215204  0.31965289    -0.58200
Mn1156     Mn  0.45660710  0.53479533  0.35296902     1.20200
Mn1157     Mn  0.45620353  0.94472795  0.35402516     1.10100
Cl1158     Cl  0.50023396  0.98815023  0.35549072    -0.86200
C1159       C  0.39264325  0.98942824  0.31257286     0.96100
C1160       C  0.40313680  0.98548133  0.40195365     0.95900
N1161       N  0.99468869  0.78720295  0.50152589    -0.36900
N1162       N  0.99444466  0.73791902  0.47131262    -0.57400
N1163       N  0.99032764  0.68804390  0.50152398    -0.36900
N1164       N  0.98817595  0.73731059  0.53182819    -0.57400
C1165       C  0.98985789  0.80529385  0.48514087     0.26700
C1166       C  0.98541813  0.80502202  0.51733108     0.26700
C1167       C  0.98379419  0.67024305  0.48524796     0.26700
C1168       C  0.98301223  0.66970723  0.51744951     0.26700
C1169       C  0.00364587  0.76356264  0.46026340     0.35300
C1170       C  0.99986769  0.71137870  0.46020159     0.35300
C1171       C  0.99413120  0.76348932  0.54323449     0.35300
C1172       C  0.99408230  0.71115184  0.54317042     0.35300
C1173       C  0.97736515  0.83502529  0.49060956    -0.22100
C1174       C  0.97481263  0.83494621  0.51093776    -0.22100
C1175       C  0.97230913  0.64004221  0.49089892    -0.22100
C1176       C  0.97199189  0.63964889  0.51125513    -0.22100
C1177       C  0.01505227  0.75325379  0.44205248    -0.23200
C1178       C  0.01263146  0.72017531  0.44200235    -0.23200
C1179       C  0.00353556  0.75393858  0.56195873    -0.23200
C1180       C  0.00358180  0.72076949  0.56190438    -0.23200
C1181       C  0.99836396  0.79614538  0.46559811    -0.18500
C1182       C  0.98885205  0.79579208  0.53737458    -0.18500
C1183       C  0.98847791  0.67878478  0.53731023    -0.18500
C1184       C  0.99074999  0.67962308  0.46558855    -0.18500
H1185       H  0.97140055  0.85494947  0.48098559     0.14400
H1186       H  0.96645129  0.85478879  0.52000444     0.14400
H1187       H  0.96563011  0.62009871  0.48135732     0.14400
H1188       H  0.96490131  0.61941610  0.52044025     0.14400
H1189       H  0.02347259  0.76807036  0.42989885     0.12600
H1190       H  0.01883733  0.70445396  0.42979914     0.12600
H1191       H  0.00931675  0.76926839  0.57443268     0.12600
H1192       H  0.00931890  0.70548558  0.57434428     0.12600
H1193       H  0.00723738  0.76551695  0.50209675     0.25900
H1194       H  0.00291167  0.70983497  0.50180320     0.25900
N1195       N  0.29865389  0.99477961  0.50056807    -0.36900
N1196       N  0.24843211  0.99343946  0.53104275    -0.57400
N1197       N  0.19907402  0.98121644  0.50102328    -0.36900
N1198       N  0.24943397  0.98236219  0.47053249    -0.57400
C1199       C  0.31797105  0.99471583  0.51668908     0.26700
C1200       C  0.31822239  0.99228402  0.48459358     0.26700
C1201       C  0.17950817  0.98763959  0.51664979     0.26700
C1202       C  0.18004919  0.98041805  0.48476457     0.26700
C1203       C  0.27473405  0.99293874  0.54291212     0.35300
C1204       C  0.22211446  0.99132736  0.54293618     0.35300
C1205       C  0.27568455  0.98426800  0.45854703     0.35300
C1206       C  0.22358339  0.97628157  0.45883532     0.35300
C1207       C  0.35031878  0.99336135  0.51080648    -0.22100
C1208       C  0.35047605  0.99180177  0.49058691    -0.22100
C1209       C  0.14750136  0.98935684  0.51033882    -0.22100
C1210       C  0.14787365  0.98519336  0.49024427    -0.22100
C1211       C  0.26503647  0.99036880  0.56247036    -0.23200
C1212       C  0.23178417  0.98990584  0.56251279    -0.23200
C1213       C  0.26650401  0.97904385  0.43912028    -0.23200
C1214       C  0.23360848  0.97373539  0.43931755    -0.23200
C1215       C  0.30751468  0.99489885  0.53661553    -0.18500
C1216       C  0.30807843  0.98978637  0.46472830    -0.18500
C1217       C  0.19065245  0.97614275  0.46502516    -0.18500
C1218       C  0.18937156  0.99101969  0.53656420    -0.18500
H1219       H  0.37168497  0.99299208  0.52010002     0.14400
H1220       H  0.37195964  0.98993903  0.48138043     0.14400
H1221       H  0.12603590  0.99355531  0.51924985     0.14400
H1222       H  0.12675824  0.98578241  0.48074483     0.14400
H1223       H  0.28030556  0.98929377  0.57543723     0.12600
H1224       H  0.21658625  0.98843298  0.57554869     0.12600
H1225       H  0.28187047  0.97905532  0.42611669     0.12600
H1226       H  0.21866897  0.96930965  0.42645162     0.12600
H1227       H  0.27377364  0.99808144  0.50035224     0.25900
H1228       H  0.22349569  0.97532581  0.50158074     0.25900
C1229       C  0.99829607  0.70780487  0.26150819     0.86200
C1230       C  0.02867959  0.71432030  0.24892663    -0.54000
C1231       C  0.02740722  0.74210534  0.23809307     0.09200
C1232       C  0.99601346  0.76176331  0.24144125     0.20100
C1233       C  0.99623086  0.73884744  0.27428262    -0.54700
C1234       C  0.99474386  0.76710143  0.26385430     0.09300
C1235       C  0.46992193  0.71201680  0.24734071    -0.54300
C1236       C  0.46709707  0.74068848  0.23767967     0.09800
H1237       H  0.04930825  0.69810810  0.24828716     0.14400
H1238       H  0.99546652  0.78388658  0.23242614     0.00100
H1239       H  0.49639198  0.74127518  0.29062961     0.14700
H1240       H  0.45196688  0.69276492  0.24605359     0.14400
C1241       C  0.47808666  0.85544661  0.28334939    -0.06000
C1242       C  0.50342908  0.85866885  0.29705401    -0.00100
C1243       C  0.02481046  0.82993513  0.30001158    -0.08700
C1244       C  0.02147967  0.80224662  0.28828079    -0.06100
C1245       C  0.49622521  0.80163181  0.27432990    -0.00100
C1246       C  0.47446454  0.82775683  0.27145378    -0.08600
C1247       C  0.44706720  0.82683602  0.25647705     0.61800
H1248       H  0.46118779  0.87525749  0.28188642     0.12500
H1249       H  0.03811646  0.78238496  0.29032598     0.12500
C1250       C  0.05173251  0.83110115  0.31538718     0.62000
F1251       F  0.42587702  0.85242960  0.25885209    -0.23100
F1252       F  0.42921920  0.79880672  0.25857729    -0.20500
F1253       F  0.45962432  0.82875014  0.23760326    -0.20100
F1254       F  0.03850573  0.83637200  0.33390817    -0.20200
F1255       F  0.07361069  0.85550358  0.31084428    -0.20500
F1256       F  0.06903420  0.80254004  0.31615196    -0.23200
C1257       C  0.01015576  0.61867578  0.27772643    -0.06000
C1258       C  0.49917107  0.62237467  0.29710484    -0.00100
C1259       C  0.48154228  0.64976274  0.30338748    -0.08700
C1260       C  0.48139929  0.67709735  0.29121387    -0.06100
C1261       C  0.49837503  0.67830400  0.27308215    -0.00100
C1262       C  0.00809206  0.64537805  0.26495955    -0.08600
C1263       C  0.01591804  0.63840707  0.24336931     0.61800
H1264       H  0.01985121  0.59604884  0.27224802     0.12500
H1265       H  0.46693487  0.69750350  0.29572005     0.12500
C1266       C  0.46328035  0.65053437  0.32297732     0.62000
F1267       F  0.00070660  0.60991147  0.23774723    -0.23100
F1268       F  0.04913677  0.63469101  0.24116737    -0.20500
F1269       F  0.51044818  0.66355813  0.23126010    -0.20100
F1270       F  0.98958455  0.63919795  0.33859685    -0.20200
F1271       F  0.43624652  0.63053429  0.32202132    -0.20500
F1272       F  0.45264239  0.68127153  0.32764698    -0.23200
C1273       C  0.46400158  0.62362332  0.42313034    -0.06000
C1274       C  0.49444622  0.60960554  0.41907222    -0.00100
C1275       C  0.02241923  0.61393741  0.43206116    -0.08700
C1276       C  0.01874128  0.63580805  0.44777972    -0.06100
C1277       C  0.99072826  0.65446983  0.44991296    -0.00100
C1278       C  0.45969488  0.64586533  0.43859226    -0.08600
C1279       C  0.42666059  0.66099575  0.44213122     0.61800
H1280       H  0.44356806  0.61778776  0.41371417     0.12500
H1281       H  0.03836649  0.63967096  0.45817333     0.12500
C1282       C  0.05450923  0.59638560  0.42983555     0.62000
F1283       F  0.40320350  0.64849865  0.42957560    -0.23100
F1284       F  0.42862196  0.69394443  0.43907886    -0.20500
F1285       F  0.41668907  0.65518974  0.46131215    -0.20100
F1286       F  0.07013084  0.60736386  0.41302217    -0.20200
F1287       F  0.04915152  0.56342216  0.42857388    -0.20500
F1288       F  0.07508658  0.60191709  0.44564528    -0.23200
C1289       C  0.02197951  0.86531252  0.43064969    -0.06000
C1290       C  0.49426198  0.86435364  0.41665927    -0.00100
C1291       C  0.46792764  0.84219477  0.41913792    -0.08700
C1292       C  0.46791859  0.82177506  0.43564693    -0.06100
C1293       C  0.99827356  0.82077306  0.44938520    -0.00100
C1294       C  0.02356796  0.84380558  0.44677665    -0.08600
C1295       C  0.05295006  0.84448317  0.46030039     0.61800
H1296       H  0.04065796  0.88362774  0.42877563     0.12500
H1297       H  0.44785950  0.80516223  0.43814938     0.12500
C1298       C  0.44090515  0.83825305  0.40400648     0.62000
F1299       F  0.07570156  0.86727435  0.45436949    -0.23100
F1300       F  0.06777069  0.81458638  0.46012569    -0.20500
F1301       F  0.04361186  0.85188496  0.47935731    -0.20100
F1302       F  0.45423016  0.83389518  0.38542254    -0.20200
F1303       F  0.42124017  0.86512180  0.40400673    -0.20500
F1304       F  0.42130211  0.81171465  0.40798366    -0.23200
C1305       C  0.12478560  0.95430630  0.42787274    -0.06000
C1306       C  0.12160546  0.98384616  0.41775925    -0.00100
C1307       C  0.14217355  0.01023841  0.42298937    -0.08700
C1308       C  0.16266237  0.00694485  0.43933355    -0.06100
C1309       C  0.16575014  0.97756543  0.44925300    -0.00100
C1310       C  0.14750444  0.95038724  0.44314064    -0.08600
C1311       C  0.15274153  0.91742697  0.45232692     0.61800
H1312       H  0.10967019  0.93400236  0.42354116     0.12500
H1313       H  0.17776746  0.02701906  0.44409168     0.12500
C1314       C  0.14469262  0.04091808  0.41081013     0.62000
F1315       F  0.12409362  0.41197454  0.45211947    -0.23100
F1316       F  0.13526746  0.44162734  0.47893965    -0.20500
F1317       F  0.18536694  0.90951766  0.45142259    -0.20100
F1318       F  0.12078646  0.56947489  0.41080400    -0.20200
F1319       F  0.15053717  0.03313087  0.39125913    -0.20500
F1320       F  0.16993013  0.06072902  0.41704366    -0.23200
C1321       C  0.35788572  0.52122830  0.41736446    -0.06000
C1322       C  0.38035348  0.98513089  0.41899849    -0.00100
C1323       C  0.36815815  0.95638356  0.42799003    -0.08700
C1324       C  0.34500103  0.95924105  0.44313010    -0.06100
C1325       C  0.33371661  0.98933679  0.44936465    -0.00100
C1326       C  0.33511506  0.52454305  0.43269821    -0.08600
C1327       C  0.31387435  0.55439288  0.43380243     0.61800
H1328       H  0.35892701  0.53922620  0.40579994     0.12500
H1329       H  0.33487615  0.93791084  0.45012480     0.12500
C1330       C  0.37912808  0.92280364  0.42200106     0.62000
F1331       F  0.32331558  0.57746407  0.42012736    -0.23100
F1332       F  0.31615453  0.56816095  0.45236212    -0.20500
F1333       F  0.28181524  0.54620090  0.43015311    -0.20100
F1334       F  0.41253825  0.92067578  0.42397385    -0.20200
F1335       F  0.37010880  0.91653159  0.40271088    -0.20500
F1336       F  0.36526136  0.89896207  0.43367458    -0.23200
C1337       C  0.12563141  0.01693370  0.57431007    -0.06000
C1338       C  0.12104769  0.98792415  0.58483711    -0.00100
C1339       C  0.13942914  0.96028600  0.57921910    -0.08700
C1340       C  0.15881738  0.96198405  0.56219078    -0.06100
C1341       C  0.16386777  0.99100687  0.55215443    -0.00100
C1342       C  0.14792788  0.01932344  0.55855223    -0.08600
C1343       C  0.17623580  0.55660543  0.55935604     0.61800
H1344       H  0.12914296  0.54153835  0.58634700     0.12500
H1345       H  0.17219805  0.94101628  0.55721415     0.12500
C1346       C  0.14111229  0.92985412  0.59164063     0.62000
F1347       F  0.13788456  0.07649484  0.55820204    -0.23100
F1348       F  0.14866232  0.05185975  0.52955993    -0.20500
F1349       F  0.20897503  0.55769081  0.56403080    -0.20100
F1350       F  0.11154885  0.91412995  0.59147970    -0.20200
F1351       F  0.15153643  0.42975679  0.60783940    -0.20500
F1352       F  0.16418312  0.90841299  0.58462366    -0.23200
C1353       C  0.36575968  0.52213260  0.57912457    -0.06000
C1354       C  0.37730586  0.98952292  0.58355213    -0.00100
C1355       C  0.36989979  0.96170642  0.57193648    -0.08700
C1356       C  0.34745231  0.96482785  0.55646298    -0.06100
C1357       C  0.33280114  0.99440347  0.55216761    -0.00100
C1358       C  0.34403804  0.52617582  0.56343525    -0.08600
C1359       C  0.32226419  0.55571005  0.56371194     0.61800
H1360       H  0.36627235  0.54019090  0.59072198     0.12500
H1361       H  0.34056218  0.94401443  0.54768007     0.12500
C1362       C  0.38509517  0.92883224  0.57555790     0.62000
F1363       F  0.29773546  0.55111253  0.57745799    -0.25100
F1364       F  0.29325213  0.05445846  0.56121096    -0.20500
F1365       F  0.34019812  0.58275022  0.56900440    -0.20100
F1366       F  0.37451699  0.91670596  0.59348458    -0.20200
F1367       F  0.43960245  0.45188802  0.56774607    -0.20500
F1368       F  0.37662546  0.90662435  0.56112332    -0.23200
C1369       C  0.46752342  0.62435633  0.57969314    -0.06000
C1370       C  0.49867316  0.61193804  0.58395086    -0.00100
C1371       C  0.02446992  0.61469980  0.57057730    -0.08700
C1372       C  0.01981039  0.63733755  0.55532704    -0.06100
C1373       C  0.48922051  0.65660757  0.55295131    -0.00100
C1374       C  0.46227204  0.64636795  0.56429645    -0.08600
C1375       C  0.42823704  0.65892633  0.56023495     0.61800
H1376       H  0.44700781  0.61703719  0.58871105     0.12500
H1377       H  0.03972126  0.64371448  0.54554451     0.12500
C1378       C  0.05762804  0.59906977  0.57268558     0.62000
F1379       F  0.40503610  0.64404504  0.57202927    -0.23100
F1380       F  0.41990551  0.65318182  0.54078831    -0.20500
F1381       F  0.93405013  0.69495725  0.56466166    -0.20100
F1382       F  0.55756391  0.57396810  0.57312856    -0.20200
F1383       F  0.07174280  0.60859688  0.59027070    -0.20500
F1384       F  0.07863586  0.60789461  0.55757982    -0.23200
C1385       C  0.46161296  0.85611839  0.57798735    -0.06000
C1386       C  0.49190469  0.87141382  0.58117639    -0.00100
C1387       C  0.02213619  0.86102629  0.57127588    -0.08700
C1388       C  0.01854690  0.83811713  0.55600841    -0.06100
C1389       C  0.48402671  0.82466081  0.55105629    -0.00100
C1390       C  0.45719741  0.83282792  0.56308095    -0.08600
C1391       C  0.42422660  0.81683150  0.56020102     0.61800
H1392       H  0.44134301  0.86201602  0.58753525     0.12500
H1393       H  0.03894668  0.83224598  0.54652822     0.12500
C1394       C  0.05498308  0.87721818  0.57388181     0.62000
F1395       F  0.40084830  0.82967828  0.57264670    -0.23100
F1396       F  0.42642587  0.78415006  0.56402572    -0.20500
F1397       F  0.41397582  0.82118253  0.54097696    -0.20100
F1398       F  0.06803157  0.86800308  0.59177101    -0.20200
F1399       F  0.05147462  0.91040030  0.57318340    -0.20500
F1400       F  0.07689213  0.86855555  0.55924663    -0.23200
C1401       C  0.10275789  0.77690797  0.21256794    -0.06000
C1402       C  0.10817815  0.75308600  0.19821669    -0.00100
C1403       C  0.08419524  0.72869443  0.19517434    -0.08700
C1404       C  0.05741672  0.72726156  0.20807824    -0.06100
C1405       C  0.05319497  0.74971591  0.22333483    -0.00100
C1406       C  0.07550735  0.77582779  0.22520343    -0.08600
C1407       C  0.07166637  0.80163664  0.24088274     0.61800
H1408       H  0.12074786  0.79593882  0.21422508     0.12500
H1409       H  0.03971428  0.70789560  0.20667922     0.12500
C1410       C  0.08582593  0.70484731  0.17812127     0.62000
F1411       F  0.07117800  0.78736436  0.25924315    -0.23100
F1412       F  0.04313410  0.81834875  0.23787738    -0.20500
F1413       F  0.09703679  0.82382492  0.24056298    -0.20100
F1414       F  0.11077624  0.68317499  0.18104589    -0.20200
F1415       F  0.09079300  0.72134716  0.16061492    -0.20500
F1416       F  0.05723447  0.68722325  0.17626580    -0.23200
C1417       C  0.44007288  0.76482883  0.20853776    -0.06000
C1418       C  0.43680739  0.74948364  0.22691157    -0.00100
C1419       C  0.40488491  0.74208286  0.23412035    -0.08700
C1420       C  0.37834584  0.74584645  0.22138798    -0.06100
C1421       C  0.38178339  0.76033381  0.20292192    -0.00100
C1422       C  0.41283481  0.77121893  0.19657993    -0.08600
C1423       C  0.41719532  0.78886196  0.17713871     0.61800
H1424       H  0.46424751  0.77125742  0.20343003     0.12500
H1425       H  0.35425792  0.73832453  0.22621229     0.12500
C1426       C  0.39651263  0.73165772  0.25510743     0.62000
F1427       F  0.44966251  0.79494532  0.17297831    -0.23100
F1428       F  0.40126737  0.81814759  0.17803341    -0.20500
F1429       F  0.40445325  0.77059138  0.16186567    -0.20100
F1430       F  0.37057203  0.74971008  0.26197841    -0.20200
F1431       F  0.42152352  0.73623342  0.26837087    -0.20500
F1432       F  0.38745964  0.69944290  0.25508409    -0.23200
C1433       C  0.28196564  0.62198086  0.07934711    -0.06000
C1434       C  0.25335186  0.64024586  0.08138392    -0.00100
C1435       C  0.22780913  0.63553403  0.06749880    -0.08700
C1436       C  0.23132199  0.61180605  0.05279807    -0.06100
C1437       C  0.25931502  0.59296759  0.05138002    -0.00100
C1438       C  0.28544500  0.59840845  0.06450914    -0.08600
C1439       C  0.31692150  0.57963224  0.06265894     0.61800
H1440       H  0.30155718  0.62585054  0.08974217     0.12500
H1441       H  0.21182214  0.60713872  0.04243215     0.12500
C1442       C  0.19654418  0.65459345  0.06824065     0.62000
F1443       F  0.34026239  0.59055955  0.07580606    -0.23100
F1444       F  0.32933037  0.58298444  0.04377528    -0.20500
F1445       F  0.31126121  0.54728898  0.06640993    -0.20100
F1446       F  0.20332232  0.68732791  0.06926858    -0.20200
F1447       F  0.17892811  0.64489008  0.08458987    -0.20500
F1448       F  0.17745663  0.64942755  0.05169919    -0.23200
C1449       C  0.22382523  0.91602653  0.05826850    -0.06000
C1450       C  0.25380550  0.93106230  0.05443063    -0.00100
C1451       C  0.28138353  0.92268265  0.06567378    -0.08700
C1452       C  0.27786882  0.89944945  0.08062729    -0.06100
C1453       C  0.24777887  0.88445746  0.08483933    -0.00100
C1454       C  0.22011050  0.89274554  0.07328851    -0.08600
C1455       C  0.18683078  0.87728968  0.07640422     0.61800
H1456       H  0.20320602  0.92298839  0.04935151     0.12500
H1457       H  0.29890677  0.89306901  0.08931745     0.12500
C1458       C  0.31446966  0.93799678  0.06176500     0.62000
F1459       F  0.16460230  0.88718298  0.06237780    -0.23100
F1460       F  0.17468492  0.88585842  0.09472293    -0.20500
F1461       F  0.18921200  0.84405026  0.07506222    -0.20100
F1462       F  0.31317372  0.97086027  0.06520593    -0.20200
F1463       F  0.32353070  0.93263212  0.04237917    -0.20500
F1464       F  0.33834494  0.92532206  0.07381469    -0.23200
C1465       C  0.28622640  0.62401581  0.92236979    -0.06000
C1466       C  0.25595381  0.63738302  0.91716615    -0.00100
C1467       C  0.22777671  0.62815631  0.92827289    -0.08700
C1468       C  0.23123925  0.60596806  0.94387291    -0.06100
C1469       C  0.26124396  0.59216585  0.94847271    -0.00100
C1470       C  0.28926129  0.60111113  0.93760719    -0.08600
C1471       C  0.32195130  0.58561710  0.94169054     0.61800
H1472       H  0.30760853  0.63085273  0.91396479     0.12500
H1473       H  0.21023151  0.59833225  0.95240004     0.12500
C1474       C  0.19400025  0.64103777  0.92390445     0.62000
F1475       F  0.34659272  0.59919457  0.93040777    -0.23100
F1476       F  0.32030202  0.55302491  0.93733129    -0.20500
F1477       F  0.33012415  0.58943018  0.96133093    -0.20100
F1478       F  0.18422625  0.63096996  0.90535989    -0.20200
F1479       F  0.19428430  0.67440399  0.92488736    -0.20500
F1480       F  0.17097846  0.62998734  0.93729737    -0.23200
C1481       C  0.27877798  0.89762940  0.92328313    -0.06000
C1482       C  0.25083940  0.87845712  0.92007304    -0.00100
C1483       C  0.22402827  0.88166783  0.93334294    -0.08700
C1484       C  0.22536864  0.90563555  0.94820590    -0.06100
C1485       C  0.25280306  0.92549250  0.95074876    -0.00100
C1486       C  0.28042407  0.92073257  0.93857233    -0.08600
C1487       C  0.31178089  0.93953353  0.94205501     0.61800
H1488       H  0.29947258  0.89463248  0.91354926     0.12500
H1489       H  0.20484970  0.90922171  0.95801781     0.12500
C1490       C  0.19455773  0.85934191  0.93250043     0.62000
F1491       F  0.33661158  0.92929306  0.92974708    -0.23100
F1492       F  0.32180224  0.93531536  0.96134531    -0.20500
F1493       F  0.30696652  0.97203203  0.93864668    -0.20100
F1494       F  0.20461300  0.82751139  0.93243446    -0.20200
F1495       F  0.17661737  0.86549487  0.91571676    -0.20500
F1496       F  0.17423375  0.86347362  0.94863443    -0.23200
C1497       C  0.48219506  0.65467678  0.73188626    -0.06000
C1498       C  0.50408126  0.67976177  0.72647267    -0.00100
C1499       C  0.02754230  0.67241385  0.71336357    -0.08700
C1500       C  0.02572956  0.64387468  0.70202278    -0.06100
C1501       C  0.50084276  0.62051999  0.70520115    -0.00100
C1502       C  0.47993937  0.62536962  0.72145400    -0.08600
C1503       C  0.45607374  0.59939519  0.72818261     0.61800
H1504       H  0.46726353  0.65728207  0.74485120     0.12500
H1505       H  0.04344455  0.63993920  0.69039432     0.12500
C1506       C  0.05605505  0.69485301  0.70854739     0.62000
F1507       F  0.44075363  0.60754489  0.74571261    -0.23100
F1508       F  0.47236291  0.57067721  0.73112608    -0.20500
F1509       F  0.43229839  0.59489453  0.71404516    -0.20100
F1510       F  0.08312873  0.67714403  0.70310591    -0.20200
F1511       F  0.06557327  0.71357179  0.72429296    -0.20500
F1512       F  0.04780008  0.71453302  0.69291441    -0.23200
C1513       C  0.48246581  0.82459729  0.72855557    -0.06000
C1514       C  0.50876238  0.80359078  0.72591125    -0.00100
C1515       C  0.03259595  0.81303253  0.71855794    -0.08700
C1516       C  0.02857265  0.84041417  0.70669546    -0.06100
C1517       C  0.50483295  0.86155366  0.70401783    -0.00100
C1518       C  0.48003658  0.85364348  0.71788104    -0.08600
C1519       C  0.45084077  0.87521769  0.72128764     0.61800
H1520       H  0.46299861  0.81738569  0.73844801     0.12500
H1521       H  0.04864359  0.84779510  0.69728064     0.12500
C1522       C  0.06587785  0.79745672  0.71846576     0.62000
F1523       F  0.43394115  0.86671605  0.73822672    -0.23100
F1524       F  0.42976341  0.87259309  0.70548977    -0.20500
F1525       F  0.46091191  0.90698542  0.72339996    -0.20100
F1526       F  0.06948360  0.77491015  0.73321688    -0.20200
F1527       F  0.08948848  0.82098695  0.72130723    -0.20500
F1528       F  0.07113826  0.78271880  0.70043518    -0.23200
C1529       C  0.07184958  0.77380978  0.77896594    -0.06000
C1530       C  0.05311650  0.74571918  0.78172298    -0.00100
C1531       C  0.06290831  0.72300517  0.79614893    -0.08700
C1532       C  0.09280425  0.72779012  0.80581329    -0.06100
C1533       C  0.11280332  0.75487075  0.80213193    -0.00100
C1534       C  0.10191343  0.77859079  0.78858769    -0.08600
C1535       C  0.12265832  0.80776863  0.78323171     0.61800
H1536       H  0.06350967  0.79137590  0.76835851     0.12500
H1537       H  0.10048157  0.71001766  0.81653956     0.12500
C1538       C  0.04274939  0.69376390  0.80233069     0.62000
F1539       F  0.10908601  0.82550903  0.76806377    -0.23100
F1540       F  0.15311140  0.79775051  0.77709672    -0.20500
F1541       F  0.12578566  0.82792728  0.79939186    -0.20100
F1542       F  0.01214124  0.69282541  0.79395685    -0.20200
F1543       F  0.03849457  0.69427769  0.82258946    -0.20500
F1544       F  0.05913233  0.66588418  0.79721462    -0.23200
C1545       C  0.44477073  0.75642150  0.79153427    -0.06000
C1546       C  0.44069811  0.75656081  0.77101033    -0.00100
C1547       C  0.40916985  0.76112023  0.76299574    -0.08700
C1548       C  0.38254300  0.76415947  0.77602357    -0.06100
C1549       C  0.38650841  0.76303059  0.79657297    -0.00100
C1550       C  0.41809987  0.75906842  0.80452750    -0.08600
C1551       C  0.42360113  0.75716184  0.82664149     0.61800
H1552       H  0.46900650  0.75275177  0.79732177     0.12500
H1553       H  0.35824279  0.76678915  0.77006416     0.12500
C1554       C  0.40208901  0.76211877  0.74098348     0.62000
F1555       F  0.45580718  0.75092678  0.83113882    -0.23100
F1556       F  0.40489037  0.73264580  0.83472082    -0.20500
F1557       F  0.41512565  0.78618480  0.83527831    -0.20100
F1558       F  0.38538723  0.73435950  0.73567134    -0.20200
F1559       F  0.42974598  0.76456578  0.72943056    -0.20500
F1560       F  0.38295224  0.78858307  0.73680845    -0.23200
C1561       C  0.32175643  0.97028362  0.72485150    -0.06000
C1562       C  0.30523731  0.99984360  0.72396998    -0.00100
C1563       C  0.31432759  0.52343619  0.70753530    -0.08700
C1564       C  0.34306854  0.51818131  0.69686578    -0.06100
C1565       C  0.36402450  0.99071451  0.70271055    -0.00100
C1566       C  0.35081732  0.96496604  0.71412799    -0.08600
C1567       C  0.36707134  0.93222314  0.71515968     0.61800
H1568       H  0.31206275  0.95158303  0.73437324     0.12500
H1569       H  0.35017734  0.53573032  0.68576828     0.12500
C1570       C  0.29567375  0.55380960  0.70197906     0.62000
F1571       F  0.36203935  0.42134700  0.73465015    -0.23100
F1572       F  0.40534079  0.44884551  0.72346939    -0.20500
F1573       F  0.36514180  0.91726442  0.69692972    -0.20100
F1574       F  0.26694689  0.55803221  0.71219358    -0.20200
F1575       F  0.29524638  0.05727179  0.68593454    -0.20500
F1576       F  0.31852587  0.08158115  0.71204151    -0.23200
C1577       C  0.15999079  0.98496778  0.69514798    -0.06000
C1578       C  0.13012176  0.99117802  0.70435533    -0.00100
C1579       C  0.13004103  0.49830890  0.72592606    -0.08700
C1580       C  0.15990611  0.50279003  0.73564582    -0.06100
C1581       C  0.18921044  0.99787696  0.72545849    -0.00100
C1582       C  0.18980768  0.98839469  0.70524667    -0.08600
C1583       C  0.22120033  0.98306536  0.69387162     0.61800
H1584       H  0.15971505  0.97811756  0.67971395     0.12500
H1585       H  0.15982225  0.51092553  0.75080640     0.12500
C1586       C  0.09821808  0.50363548  0.73683821     0.62000
F1587       F  0.23558007  0.95472018  0.69984561    -0.23100
F1588       F  0.24227647  0.00859813  0.69684901    -0.20500
F1589       F  0.21424894  0.47710021  0.67420647    -0.20100
F1590       F  0.07725269  0.97925607  0.73319946    -0.20200
F1591       F  0.08044318  0.52742169  0.72757448    -0.20500
F1592       F  0.10321133  0.51306710  0.75621747    -0.23200
C1593       C  0.27570679  0.60622405  0.79982050    -0.06000
C1594       C  0.25533894  0.63162444  0.79449013    -0.00100
C1595       C  0.23627163  0.62891842  0.77730415    -0.08700
C1596       C  0.23680977  0.59974542  0.76665129    -0.06100
C1597       C  0.25504696  0.57271903  0.77282714    -0.00100
C1598       C  0.27715928  0.57729202  0.78899341    -0.08600
C1599       C  0.30239133  0.55322835  0.79634450     0.61800
H1600       H  0.29079412  0.60901387  0.81283174     0.12500
H1601       H  0.22312144  0.59855496  0.75316090     0.12500
C1602       C  0.21570159  0.65688360  0.77011831     0.62000
F1603       F  0.29112801  0.53915575  0.81358212    -0.23100
F1604       F  0.33121373  0.56934469  0.80048327    -0.20500
F1605       F  0.31010555  0.52926960  0.78305267    -0.20100
F1606       F  0.23463330  0.68454215  0.76871768    -0.20200
F1607       F  0.19043991  0.66220104  0.78321310    -0.20500
F1608       F  0.20237308  0.65085727  0.75172295    -0.23200
C1609       C  0.27617900  0.92923881  0.77496808    -0.06000
C1610       C  0.24627514  0.94451982  0.77237585    -0.00100
C1611       C  0.21759115  0.92992869  0.77975353    -0.08700
C1612       C  0.22027591  0.90213050  0.79154182    -0.06100
C1613       C  0.25060870  0.88790872  0.79554652    -0.00100
C1614       C  0.27887349  0.90051818  0.78593406    -0.08600
C1615       C  0.31191600  0.88441643  0.78711449     0.61800
H1616       H  0.29774008  0.94069784  0.76888941     0.12500
H1617       H  0.19851102  0.89162351  0.79794986     0.12500
C1618       C  0.18436114  0.94319927  0.77464534     0.62000
F1619       F  0.33340198  0.89679937  0.77323015    -0.23100
F1620       F  0.30883610  0.85164812  0.78347348    -0.20500
F1621       F  0.32522420  0.88941862  0.80559303    -0.20100
F1622       F  0.18036307  0.94198151  0.75441606    -0.20200
F1623       F  0.18167388  0.97479195  0.78101894    -0.20500
F1624       F  0.15943542  0.92543910  0.78322420    -0.23200
C1625       C  0.08520150  0.73373161  0.06057891    -0.06000
C1626       C  0.08048613  0.76296786  0.05066920    -0.00100
C1627       C  0.09581274  0.79130356  0.05779842    -0.08700
C1628       C  0.11758945  0.78887992  0.07374347    -0.06100
C1629       C  0.12269690  0.75954804  0.08370456    -0.00100
C1630       C  0.10466917  0.73172560  0.07759494    -0.08600
C1631       C  0.10394434  0.70055957  0.08938252     0.61800
H1632       H  0.07204012  0.71268014  0.05531762     0.12500
H1633       H  0.13033752  0.81027190  0.07879790     0.12500
C1634       C  0.08802316  0.82408691  0.04915138     0.62000
F1635       F  0.08102215  0.67882842  0.08227440    -0.23100
F1636       F  0.09619186  0.70705924  0.10886650    -0.20500
F1637       F  0.13381675  0.68586217  0.08837133    -0.20100
F1638       F  0.05500663  0.82978091  0.05086662    -0.20200
F1639       F  0.09678710  0.82497653  0.02946451    -0.20500
F1640       F  0.10437469  0.84874821  0.05882417    -0.23200
C1641       C  0.40072979  0.79079177  0.05605840    -0.06000
C1642       C  0.41536706  0.76120452  0.05170567    -0.00100
C1643       C  0.40685115  0.73331166  0.06251474    -0.08700
C1644       C  0.38421932  0.73619487  0.07789283    -0.06100
C1645       C  0.36963182  0.76587066  0.08271768    -0.00100
C1646       C  0.37751086  0.79374840  0.07127334    -0.08600
C1647       C  0.36135634  0.82627461  0.07446827     0.61800
H1648       H  0.40784854  0.81159224  0.04735035     0.12500
H1649       H  0.37807813  0.71496824  0.08644517     0.12500
C1650       C  0.42180575  0.70066336  0.05785787     0.62000
F1651       F  0.37102378  0.84873890  0.06046307    -0.23100
F1652       F  0.36956496  0.83854187  0.09278520    -0.20500
F1653       F  0.32793461  0.82280659  0.07311469    -0.20100
F1654       F  0.45503415  0.70185680  0.06089935    -0.20200
F1655       F  0.41581001  0.69256877  0.03839369    -0.20500
F1656       F  0.40906541  0.67637001  0.06964464    -0.23200
C1657       C  0.08096933  0.72589490  0.93369323    -0.06000
C1658       C  0.07675220  0.75353341  0.94546874    -0.00100
C1659       C  0.09320001  0.78240132  0.94010376    -0.08700
C1660       C  0.11686985  0.78122348  0.92505793    -0.06100
C1661       C  0.12261287  0.75299262  0.91402131    -0.00100
C1662       C  0.10251545  0.72544031  0.91751248    -0.08600
C1663       C  0.10242564  0.69603190  0.90404356     0.61800
H1664       H  0.06741075  0.70423974  0.93742217     0.12500
H1665       H  0.13106669  0.80273587  0.92187088     0.12500
C1666       C  0.08542612  0.81472783  0.94954308     0.62000
F1667       F  0.07672855  0.67530181  0.90822422    -0.23100
F1668       F  0.13090838  0.67895329  0.90630331    -0.20500
F1669       F  0.09922174  0.70565740  0.88460072    -0.20100
F1670       F  0.10319837  0.81861819  0.96665028    -0.20200
F1671       F  0.05257575  0.81685513  0.95386743    -0.20500
F1672       F  0.09310731  0.83991070  0.93688812    -0.23200
C1673       C  0.41968350  0.77409117  0.93903841    -0.06000
C1674       C  0.42020658  0.74386197  0.94828881    -0.00100
C1675       C  0.39935107  0.71886807  0.94166457    -0.08700
C1676       C  0.37815200  0.72525271  0.92601655    -0.06100
C1677       C  0.37732680  0.75546321  0.91656240    -0.00100
C1678       C  0.39872034  0.78042575  0.92307143    -0.08600
C1679       C  0.40015796  0.81327850  0.91319484     0.61800
H1680       H  0.43586052  0.79275694  0.94455797     0.12500
H1681       H  0.36176294  0.70635380  0.92108949     0.12500
C1682       C  0.39931642  0.68556344  0.95109180     0.62000
F1683       F  0.42483398  0.83248013  0.92080999    -0.23100
F1684       F  0.37106418  0.82922351  0.91608839    -0.20500
F1685       F  0.40595854  0.80959470  0.89319925    -0.20100
F1686       F  0.38962728  0.68776292  0.97059189    -0.20200
F1687       F  0.43016383  0.67258524  0.95017933    -0.20500
F1688       F  0.37835569  0.66437875  0.94158755    -0.23200
C1689       C  0.30516463  0.99168612  0.29378743    -0.06000
C1690       C  0.31036932  0.99622686  0.27347362    -0.00100
C1691       C  0.34523106  0.49780348  0.26264226    -0.08700
C1692       C  0.37202414  0.49578738  0.27545766    -0.06100
C1693       C  0.36364684  0.99008596  0.29962714    -0.00100
C1694       C  0.33138787  0.98834967  0.30705490    -0.08600
C1695       C  0.32482269  0.98392826  0.32893401     0.61800
H1696       H  0.28040278  0.99220443  0.29930688     0.12500
H1697       H  0.39648927  0.49698647  0.26943707     0.12500
C1698       C  0.35260171  0.49871815  0.24065061     0.62000
F1699       F  0.29182871  0.98168936  0.33299933    -0.23100
F1700       F  0.33740410  0.00991786  0.33930325    -0.20500
F1701       F  0.33936715  0.95589272  0.33544842    -0.20100
F1702       F  0.36789015  0.52759497  0.23605824    -0.20200
F1703       F  0.32530064  0.49535647  0.22897777    -0.20500
F1704       F  0.37323643  0.47357646  0.23592001    -0.23200
C1705       C  0.18189698  0.47520209  0.27839253    -0.06000
C1706       C  0.19724025  0.00282758  0.28056837    -0.00100
C1707       C  0.18698802  0.02514305  0.29515017    -0.08700
C1708       C  0.15705031  0.01993532  0.30465730    -0.06100
C1709       C  0.13766128  0.99246221  0.30097224    -0.00100
C1710       C  0.15261652  0.47056019  0.28895146    -0.08600
C1711       C  0.13174754  0.44100829  0.28453267     0.61800
H1712       H  0.18937992  0.45768758  0.26745480     0.12500
H1713       H  0.14900745  0.03759604  0.31541101     0.12500
C1714       C  0.20673792  0.05450440  0.30147999     0.62000
F1715       F  0.14513998  0.42201791  0.26982699    -0.23100
F1716       F  0.10126533  0.45063171  0.27834549    -0.20500
F1717       F  0.12668145  0.91893288  0.29784043    -0.20100
F1718       F  0.23873884  0.05324625  0.29519173    -0.20200
F1719       F  0.20714274  0.05645219  0.32187508    -0.20500
F1720       F  0.19245309  0.08211546  0.29411729    -0.23200
C1721       C  0.22510399  0.60580873  0.19941543    -0.06000
C1722       C  0.24801737  0.63016855  0.20318681    -0.00100
C1723       C  0.26877073  0.62720497  0.21962925    -0.08700
C1724       C  0.26773523  0.59839032  0.23066269    -0.06100
C1725       C  0.24711242  0.57200109  0.22574034    -0.00100
C1726       C  0.22306800  0.57742833  0.21079186    -0.08600
C1727       C  0.19484614  0.55460375  0.20605113     0.61800
H1728       H  0.20864069  0.60898027  0.18711744     0.12500
H1729       H  0.28279155  0.59704701  0.24360741     0.12500
C1730       C  0.29107683  0.65479885  0.22594386     0.62000
F1731       F  0.20452504  0.53161593  0.19250908    -0.23100
F1732       F  0.16911985  0.57125578  0.19780220    -0.20500
F1733       F  0.18279566  0.53980855  0.22275453    -0.20100
F1734       F  0.27330794  0.68292166  0.22782888    -0.20200
F1735       F  0.31537743  0.65934380  0.21206078    -0.20500
F1736       F  0.30582353  0.64880514  0.24389914    -0.23200
C1737       C  0.26931052  0.92819834  0.23003758    -0.06000
C1738       C  0.24285883  0.94904755  0.22761864    -0.00100
C1739       C  0.21624178  0.93898539  0.21577737    -0.08700
C1740       C  0.21817809  0.90930101  0.20571366    -0.06100
C1741       C  0.24566812  0.88936460  0.20687433    -0.00100
C1742       C  0.27138302  0.89847754  0.21985415    -0.08600
C1743       C  0.30078256  0.87715839  0.22328581     0.61800
H1744       H  0.28905467  0.93601621  0.23949994     0.12500
H1745       H  0.19844173  0.90213040  0.19608786     0.12500
C1746       C  0.18581694  0.95927169  0.21347678     0.62000
F1747       F  0.31989893  0.88849507  0.23865414    -0.23100
F1748       F  0.31999346  0.87631006  0.20652351    -0.20500
F1749       F  0.29066054  0.84620658  0.22802974    -0.20100
F1750       F  0.17494028  0.96969030  0.23168746    -0.20200
F1751       F  0.16074417  0.94192692  0.20477868    -0.20500
F1752       F  0.19243959  0.98562259  0.20166189    -0.23200
C1753       C  0.74927129  0.03836491  0.23994246     0.86200
C1754       C  0.78192714  0.03095267  0.25047655    -0.54000
C1755       C  0.78558531  0.50225701  0.26130854     0.09200
C1756       C  0.75282960  0.48410866  0.26058708     0.20100
C1757       C  0.74428638  0.00801284  0.22699834    -0.54700
C1758       C  0.74710963  0.47778084  0.23849786     0.09300
C1759       C  0.72372421  0.03585701  0.25650223    -0.54300
C1760       C  0.72722284  0.50934891  0.26643465     0.09800
H1761       H  0.80371144  0.04569910  0.24982717     0.14400
H1762       H  0.75216052  0.46187695  0.26973956     0.00100
H1763       H  0.74944750  0.50356604  0.21122576     0.14700
H1764       H  0.70628860  0.05481716  0.25962541     0.14400
N1765       N  0.94727944  0.25902193  0.00155725    -0.36900
N1766       N  0.49620320  0.24463788  0.95592751    -0.57400
N1767       N  0.54769892  0.25095145  0.00060895    -0.36900
N1768       N  0.49741817  0.25780126  0.03020185    -0.57400
C1769       C  0.92793935  0.25074180  0.98624203     0.26700
C1770       C  0.93014049  0.25377551  0.01829212     0.26700
C1771       C  0.56625733  0.24458990  0.98471798     0.26700
C1772       C  0.56689415  0.25029214  0.01661880     0.26700
C1773       C  0.96758587  0.26155187  0.95909148     0.35300
C1774       C  0.52219897  0.22921000  0.96358874     0.35300
C1775       C  0.97341307  0.26850004  0.04249831     0.35300
C1776       C  0.52378360  0.26213110  0.04187664     0.35300
C1777       C  0.89791183  0.24046323  0.99330354    -0.22100
C1778       C  0.89926852  0.24245694  0.01355894    -0.22100
C1779       C  0.59824255  0.24030700  0.99030686    -0.22100
C1780       C  0.59856202  0.24321982  0.01066847    -0.22100
C1781       C  0.97522027  0.26966407  0.93976799    -0.23200
C1782       C  0.51252021  0.20231594  0.97423570    -0.23200
C1783       C  0.98374890  0.27813048  0.06107198    -0.23200
C1784       C  0.51382930  0.27018599  0.06081237    -0.23200
C1785       C  0.93591323  0.25443058  0.96607418    -0.18500
C1786       C  0.94093058  0.26086748  0.03761389    -0.18500
C1787       C  0.55673999  0.25742350  0.03613112    -0.18500
C1788       C  0.55322684  0.24331142  0.96558998    -0.18500
H1789       H  0.87703163  0.23281548  0.98474488     0.14400
H1790       H  0.87962003  0.23659818  0.02363627     0.14400
H1791       H  0.61879367  0.23499768  0.98084632     0.14400
H1792       H  0.61981362  0.24116541  0.01996745     0.14400
H1793       H  0.95866237  0.27240403  0.92749842     0.12600
H1794       H  0.52773910  0.18687832  0.98313584     0.12600
H1795       H  0.96894471  0.28260588  0.07401617     0.12600
H1796       H  0.52901202  0.27501857  0.07351743     0.12600
H1797       H  0.96937736  0.27112298  0.00060264     0.25900
H1798       H  0.52360078  0.25820149  0.99973756     0.25900
C1799       C  0.74330772  0.03780244  0.76306656     0.86200
C1800       C  0.71490909  0.03336676  0.74820392    -0.54000
C1801       C  0.71921473  0.50474607  0.74024923     0.09200
C1802       C  0.74893849  0.48288458  0.74436578     0.20100
C1803       C  0.74118356  0.00707579  0.77558510    -0.54700
C1804       C  0.74819666  0.47882687  0.76700410     0.09300
C1805       C  0.77366355  0.03423796  0.75018388    -0.54300
C1806       C  0.77925062  0.50433303  0.73978336     0.09800
H1807       H  0.69490470  0.04968304  0.74607746     0.14400
H1808       H  0.74894026  0.45940794  0.73675119     0.00100
H1809       H  0.74865646  0.50802309  0.79297235     0.14700
H1810       H  0.79284552  0.05240903  0.74968993     0.14400
C1811       C  0.49957611  0.20850452  0.73975636     0.86200
C1812       C  0.96582096  0.21578807  0.75239273    -0.54000
C1813       C  0.96411373  0.24412550  0.76273580     0.09200
C1814       C  0.49811724  0.26434827  0.75806491     0.20100
C1815       C  0.50441024  0.23795444  0.72611169    -0.54700
C1816       C  0.50429642  0.26711548  0.73563736     0.09300
C1817       C  0.52481923  0.21215481  0.75613995    -0.54300
C1818       C  0.52445642  0.24117564  0.76565189     0.09800
H1819       H  0.94474518  0.20014645  0.75128386     0.14400
H1820       H  0.49758933  0.28795726  0.76586323     0.00100
H1821       H  0.50643182  0.23585456  0.71018993     0.14700
H1822       H  0.54252519  0.19357054  0.75936070     0.14400
N1823       N  0.75406790  0.45974742  0.00241663    -0.36900
N1824       N  0.74616422  0.00866201  0.97080124    -0.57400
N1825       N  0.74763555  0.05839401  0.00074186    -0.36900
N1826       N  0.75034471  0.00891653  0.03130433    -0.57400
C1827       C  0.76048186  0.44064481  0.98670294     0.26700
C1828       C  0.75940168  0.44207499  0.01887043     0.26700
C1829       C  0.75288787  0.07656067  0.98443842     0.26700
C1830       C  0.75544792  0.07670024  0.01658825     0.26700
C1831       C  0.75070181  0.48100758  0.95998672     0.35300
C1832       C  0.73962513  0.03453836  0.95942883     0.35300
C1833       C  0.74989002  0.48533739  0.04370741     0.35300
C1834       C  0.74520668  0.03531744  0.04259349     0.35300
C1835       C  0.76955574  0.41028379  0.99323730    -0.22100
C1836       C  0.76867245  0.41112889  0.01352731    -0.22100
C1837       C  0.76346799  0.10709277  0.99001547    -0.22100
C1838       C  0.76522174  0.10714276  0.01030413    -0.22100
C1839       C  0.74233473  0.48912011  0.94082256    -0.23200
C1840       C  0.72859916  0.02457968  0.94106797    -0.23200
C1841       C  0.74155658  0.49617249  0.06239249    -0.23200
C1842       C  0.73540056  0.02613750  0.06137827    -0.23200
C1843       C  0.75612482  0.44910774  0.96665712    -0.18500
C1844       C  0.75441971  0.45261726  0.03852426    -0.18500
C1845       C  0.75165870  0.06741954  0.03657634    -0.18500
C1846       C  0.74660486  0.06680110  0.96477985    -0.18500
H1847       H  0.77570449  0.38949474  0.98430525     0.14400
H1848       H  0.77407647  0.39114419  0.02323043     0.14400
H1849       H  0.76909156  0.12732680  0.98047675     0.14400
H1850       H  0.77242084  0.12745610  0.01940452     0.14400
H1851       H  0.73762997  0.47288042  0.92861341     0.12600
H1852       H  0.72220086  0.03961164  0.92863635     0.12600
H1853       H  0.73628520  0.48176851  0.07534203     0.12600
H1854       H  0.73005241  0.04173923  0.07378632     0.12600
H1855       H  0.74302354  0.48215719  0.00187402     0.25900
H1856       H  0.73595738  0.03611991  0.00117996     0.25900
N1857       N  0.73141082  0.32638282  0.87976429    -0.06400
N1858       N  0.72113337  0.34325395  0.89509775    -0.58500
N1859       N  0.76219996  0.32847952  0.83391760    -0.06100
N1860       N  0.77351493  0.34758864  0.81993100    -0.60600
N1861       N  0.73022163  0.32875289  0.83419067    -0.05600
N1862       N  0.71926979  0.34812256  0.82029721    -0.58500
N1863       N  0.76340270  0.32639005  0.87922926    -0.05300
N1864       N  0.77537456  0.34310530  0.89417929    -0.61000
C1865       C  0.74875806  0.35339314  0.90414111     0.95800
C1866       C  0.74657953  0.35959035  0.81134702     0.95600
N1867       N  0.81644513  0.24356556  0.83164865    -0.06600
N1868       N  0.83555616  0.23338527  0.81722085    -0.59100
N1869       N  0.81702148  0.27338846  0.87749747    -0.04700
N1870       N  0.83406859  0.28417057  0.89258126    -0.60300
N1871       N  0.81681819  0.24170351  0.87724218    -0.06600
N1872       N  0.83365302  0.23030201  0.89222742    -0.59300
N1873       N  0.81607844  0.27530793  0.83209328    -0.04300
N1874       N  0.83486064  0.28727678  0.81801740    -0.60400
Mn1875     Mn  0.79036272  0.30163169  0.85563552     1.18400
C1876       C  0.84677426  0.26091874  0.80872605     0.97900
C1877       C  0.84412768  0.25714312  0.90182091     0.98600
N1878       N  0.67442594  0.27518920  0.83377351    -0.06600
N1879       N  0.65159347  0.28639402  0.82193378    -0.62900
N1880       N  0.67601516  0.24053404  0.87762750    -0.05400
N1881       N  0.65601429  0.22757637  0.89064533    -0.63600
N1882       N  0.67564417  0.27221728  0.87879660    -0.06100
N1883       N  0.65510801  0.28143765  0.89272933    -0.63200
N1884       N  0.67514438  0.24344508  0.83291329    -0.05000
N1885       N  0.65287519  0.23259324  0.82055093    -0.63900
Mn1886     Mn  0.70230990  0.30158945  0.85668754     1.10700
C1887       C  0.63858074  0.25956804  0.81351545     0.99100
C1888       C  0.64297238  0.25323056  0.89992905     0.99200
N1889       N  0.76220739  0.18834517  0.87701561    -0.06100
N1890       N  0.77268450  0.17068936  0.89190815    -0.61500
N1891       N  0.73036409  0.18985311  0.83173331    -0.05400
N1892       N  0.71894590  0.16962227  0.81841839    -0.58200
N1893       N  0.76233159  0.18940463  0.83176147    -0.06700
N1894       N  0.77322689  0.16890463  0.81840971    -0.61100
N1895       N  0.73024634  0.18853876  0.87680255    -0.05700
N1896       N  0.71844588  0.17115803  0.89145726    -0.58200
Mn1897     Mn  0.79028844  0.21498595  0.85437956     1.20200
Mn1898     Mn  0.70259552  0.21504611  0.85459329     1.10100
Cl1899     Cl  0.74632110  0.25834968  0.85525999    -0.86200
C1900       C  0.74501221  0.16014411  0.90090701     0.96100
C1901       C  0.74584425  0.15704605  0.80996234     0.95900
N1902       N  0.67629216  0.23997445  0.16984706    -0.06400
N1903       N  0.65437849  0.22766035  0.18206335    -0.58500
N1904       N  0.67654534  0.27309059  0.12500215    -0.06100
N1905       N  0.65733765  0.28348710  0.11075551    -0.60600
N1906       N  0.67768776  0.24136382  0.12480520    -0.05600
N1907       N  0.65940605  0.22963744  0.11051583    -0.58500
N1908       N  0.67542206  0.27176188  0.17035689    -0.05300
N1909       N  0.65299798  0.28155381  0.18305093    -0.61000
C1910       C  0.64015723  0.25379196  0.19033909     0.95800
C1911       C  0.64663898  0.25600796  0.10186862     0.95600
N1912       N  0.76208872  0.32934818  0.12581417    -0.06600
N1913       N  0.77319540  0.34739336  0.11119314    -0.59100
N1914       N  0.73003834  0.32716340  0.17132402    -0.04700
N1915       N  0.71869022  0.34592905  0.18551998    -0.60300
N1916       N  0.76207370  0.32779558  0.17131734    -0.06600
N1917       N  0.77293376  0.34696182  0.18545368    -0.59300
N1918       N  0.73011679  0.32853570  0.12565478    -0.04300
N1919       N  0.71899697  0.34615318  0.11091096    -0.60400
Mn1920     Mn  0.70239772  0.30095665  0.14815512     1.18400
C1921       C  0.74610081  0.35783941  0.10188034     0.97900
C1922       C  0.74571753  0.35796021  0.19443770     0.98600
N1923       N  0.73334448  0.18973275  0.12378999    -0.06600
N1924       N  0.72260404  0.17304490  0.10848314    -0.62900
N1925       N  0.76541789  0.18890456  0.16938253    -0.05400
N1926       N  0.77698065  0.16976729  0.18325472    -0.63600
N1927       N  0.73340885  0.18819822  0.16949648    -0.06100
N1928       N  0.72269215  0.16860782  0.18344360    -0.63200
N1929       N  0.76530327  0.19063655  0.12371349    -0.05000
N1930       N  0.77686874  0.17459302  0.10836061    -0.63900
Mn1931     Mn  0.70472318  0.21408515  0.14707515     1.10700
C1932       C  0.74993732  0.16389111  0.09880633     0.99100
C1933       C  0.75007611  0.15738110  0.19210334     0.99200
N1934       N  0.81923339  0.27574935  0.16998020    -0.06100
N1935       N  0.84149611  0.28664549  0.18245115    -0.61500
N1936       N  0.81765374  0.24587258  0.12439143    -0.05400
N1937       N  0.83572460  0.23600351  0.10947935    -0.58200
N1938       N  0.81696459  0.27756049  0.12494383    -0.06700
N1939       N  0.83455501  0.28982332  0.11045408    -0.61100
N1940       N  0.81942370  0.24395180  0.16953490    -0.05700
N1941       N  0.84148183  0.23263475  0.18179997    -0.58200
Mn1942     Mn  0.79059189  0.30337146  0.14816269     1.20200
Mn1943     Mn  0.79250918  0.21661297  0.14682875     1.10100
Cl1944     Cl  0.74751180  0.25877549  0.14771442    -0.86200
C1945       C  0.85491454  0.25944060  0.18983454     0.96100
C1946       C  0.84612598  0.26369989  0.10081327     0.95900
N1947       N  0.98238365  0.05925184  0.67119755    -0.06400
N1948       N  0.97179830  0.07899553  0.68511876    -0.58500
N1949       N  0.51242053  0.06153194  0.62374510    -0.06100
N1950       N  0.52327439  0.07896881  0.60883906    -0.60600
N1951       N  0.98103565  0.05823193  0.62546676    -0.05600
N1952       N  0.96950879  0.07451260  0.61026115    -0.58500
N1953       N  0.51424163  0.06030671  0.66915582    -0.05300
N1954       N  0.52593974  0.07881787  0.68332519    -0.61000
C1955       C  0.99932941  0.09127918  0.69320874     0.95800
C1956       C  0.99647194  0.08441583  0.60029178     0.95600
N1957       N  0.57307332  0.47579802  0.62569685    -0.06600
N1958       N  0.59325176  0.46484429  0.61213555    -0.59100
N1959       N  0.56900046  0.00733194  0.66731734    -0.04700
N1960       N  0.58847518  0.01809599  0.68135015    -0.60300
N1961       N  0.57060749  0.47469085  0.67083362    -0.06600
N1962       N  0.58975490  0.46349718  0.68484971    -0.59300
N1963       N  0.56638079  0.00949643  0.62211838    -0.04300
N1964       N  0.58434461  0.02179083  0.60779201    -0.60400
Mn1965     Mn  0.54118285  0.03539757  0.64570013     1.18400
C1966       C  0.60613278  0.49178098  0.60394189     0.97900
C1967       C  0.60076770  0.49038921  0.69415391     0.98600
N1968       N  0.92713145  0.00476214  0.62680928    -0.06600
N1969       N  0.90961941  0.01627870  0.61223638    -0.62900
N1970       N  0.92975721  0.47156571  0.67083846    -0.05400
N1971       N  0.90773733  0.46084403  0.68358544    -0.63600
N1972       N  0.92762707  0.00447943  0.67189755    -0.06100
N1973       N  0.90680610  0.01584205  0.68496978    -0.63200
N1974       N  0.93064686  0.47170993  0.62555331    -0.05000
N1975       N  0.91308905  0.46089308  0.61065575    -0.63900
Mn1976     Mn  0.95392963  0.03235188  0.64898874     1.10700
C1977       C  0.90263267  0.48796137  0.60157196     0.99100
C1978       C  0.89519934  0.48797696  0.69178328     0.99200
N1979       N  0.51594022  0.42003702  0.66907514    -0.06100
N1980       N  0.52676210  0.39949768  0.68235019    -0.61500
N1981       N  0.98424080  0.41795915  0.62491325    -0.05400
N1982       N  0.97259750  0.40038291  0.61020532    -0.58200
N1983       N  0.51826117  0.42242768  0.62360751    -0.06700
N1984       N  0.52994413  0.40627998  0.60834250    -0.61100
N1985       N  0.98451900  0.41744681  0.67044559    -0.05700
N1986       N  0.97327430  0.39816517  0.68442124    -0.58200
Mn1987     Mn  0.54507455  0.44751736  0.64736517     1.20200
Mn1988     Mn  0.95668774  0.44395145  0.64802265     1.10100
Cl1989     Cl  0.00095630  0.48758910  0.64792155    -0.86200
C1990       C  0.00023467  0.38630009  0.69316468     0.96100
C1991       C  0.99940831  0.38948633  0.60066152     0.95900
N1992       N  0.57373936  0.47757690  0.33311607    -0.06400
N1993       N  0.59695294  0.46700869  0.32125040    -0.58500
N1994       N  0.56884514  0.00334678  0.38017695    -0.06100
N1995       N  0.58711901  0.01421980  0.39471528    -0.60600
N1996       N  0.56994715  0.47758677  0.37820106    -0.05600
N1997       N  0.58882912  0.46694047  0.39250245    -0.58500
N1998       N  0.57328929  0.00509947  0.33520856    -0.05300
N1999       N  0.59661085  0.01662889  0.32370096    -0.61000
C2000       C  0.61052603  0.49418887  0.31363899     0.95800
C2001       C  0.60025733  0.49417883  0.40127281     0.95600
N2002       N  0.98316861  0.05600566  0.37780514    -0.06600
N2003       N  0.97182840  0.07326445  0.39269180    -0.59100
N2004       N  0.51732602  0.05874850  0.33439432    -0.04700
N2005       N  0.52880101  0.08014925  0.32165130    -0.60300
N2006       N  0.98465393  0.05847854  0.33240276    -0.06600
N2007       N  0.97451043  0.08025185  0.31957866    -0.59300
N2008       N  0.51494312  0.05661695  0.37957806    -0.04300
N2009       N  0.52543712  0.07385945  0.39465354    -0.60400
Mn2010     Mn  0.54414562  0.03165263  0.35722413     1.18400
C2011       C  0.99888685  0.08349690  0.40234295     0.97900
C2012       C  0.00239498  0.09330526  0.31230996     0.98600
N2013       N  0.51562028  0.42281012  0.37687996    -0.06600
N2014       N  0.52590168  0.40331433  0.39090910    -0.62900
N2015       N  0.98921941  0.42029123  0.33265987    -0.05400
N2016       N  0.97897803  0.39988443  0.31905964    -0.63600
N2017       N  0.51868885  0.42272823  0.33185632    -0.06100
N2018       N  0.53091070  0.40166042  0.31926592    -0.63200
N2019       N  0.98730830  0.42094996  0.37781174    -0.05000
N2020       N  0.97555837  0.40286655  0.39217595    -0.63900
Mn2021     Mn  0.54503593  0.44956897  0.35497607     1.10700
C2022       C  0.00206331  0.39277679  0.40209974     0.99100
C2023       C  0.00668737  0.38812157  0.31110847     0.99200
N2024       N  0.92893687  0.00339709  0.33142022    -0.06100
N2025       N  0.90725683  0.01454878  0.31880739    -0.61500
N2026       N  0.93195342  0.47247906  0.37686512    -0.05400
N2027       N  0.91372860  0.46123503  0.39139725    -0.58200
N2028       N  0.92954206  0.00218446  0.37663089    -0.06700
N2029       N  0.91281225  0.01266820  0.39196114    -0.61100
N2030       N  0.93220218  0.47139170  0.33175659    -0.05700
N2031       N  0.91116691  0.45942585  0.31890800    -0.58200
Mn2032     Mn  0.95585548  0.03071447  0.35438246     1.20200
Mn2033     Mn  0.95966705  0.44554632  0.35468429     1.10100
Cl2034     Cl  0.00239164  0.49039482  0.35475997    -0.86200
C2035       C  0.89809778  0.48594532  0.31048884     0.96100
C2036       C  0.90159542  0.48816082  0.39991056     0.95900
N2037       N  0.50034447  0.29118583  0.49907687    -0.36900
N2038       N  0.49587040  0.24007854  0.46961087    -0.57400
N2039       N  0.49337561  0.19208182  0.50089672    -0.36900
N2040       N  0.49442149  0.24319968  0.53040457    -0.57400
C2041       C  0.49564667  0.30887061  0.48253596     0.26700
C2042       C  0.49455607  0.31071240  0.51473888     0.26700
C2043       C  0.48758360  0.17283899  0.48513173     0.26700
C2044       C  0.48763271  0.17428504  0.51726211     0.26700
C2045       C  0.50316043  0.26514557  0.45763691     0.35300
C2046       C  0.49932836  0.21307974  0.45861602     0.35300
C2047       C  0.50037111  0.26974125  0.54150814     0.35300
C2048       C  0.49764044  0.21740416  0.54245496     0.35300
C2049       C  0.48730719  0.34014645  0.48775075    -0.22100
C2050       C  0.48684301  0.34136698  0.50805866    -0.22100
C2051       C  0.47854948  0.14227551  0.49154509    -0.22100
C2052       C  0.47878477  0.14312430  0.51181436    -0.22100
C2053       C  0.51095256  0.25405313  0.43890601    -0.23200
C2054       C  0.50856801  0.22105687  0.43953122    -0.23200
C2055       C  0.50699154  0.26077593  0.56078456    -0.23200
C2056       C  0.50528499  0.22765353  0.56137818    -0.23200
C2057       C  0.50050643  0.29802148  0.46290557    -0.18500
C2058       C  0.49757643  0.30202843  0.53487728    -0.18500
C2059       C  0.49197916  0.18482128  0.53695610    -0.18500
C2060       C  0.49246024  0.18139569  0.46515419    -0.18500
H2061       H  0.48250157  0.36014992  0.47794159     0.14400
H2062       H  0.48149913  0.36248442  0.51689788     0.14400
H2063       H  0.47293460  0.12134278  0.48256043     0.14400
H2064       H  0.47334242  0.12294406  0.52143315     0.14400
H2065       H  0.51737957  0.26827471  0.42606775     0.12600
H2066       H  0.51275981  0.20482442  0.42726066     0.12600
H2067       H  0.51209351  0.27647842  0.57319551     0.12600
H2068       H  0.50886193  0.21284072  0.57432802     0.12600
H2069       H  0.51036374  0.26840943  0.49964881     0.25900
H2070       H  0.50403973  0.21461637  0.50053957     0.25900
N2071       N  0.80360116  0.50180946  0.50073319    -0.36900
N2072       N  0.75418385  0.49806144  0.53136606    -0.57400
N2073       N  0.70322861  0.49509713  0.50151772    -0.36900
N2074       N  0.75276874  0.49559339  0.47088608    -0.57400
C2075       C  0.82238050  0.49542645  0.51657185     0.26700
C2076       C  0.82160813  0.49510407  0.48456498     0.26700
C2077       C  0.68478690  0.49136405  0.51793204     0.26700
C2078       C  0.68399574  0.48928879  0.48569636     0.26700
C2079       C  0.78064220  0.50231548  0.54287562     0.35300
C2080       C  0.72807329  0.50055707  0.54339641     0.35300
C2081       C  0.77867739  0.50116107  0.45901999     0.35300
C2082       C  0.72616827  0.49630599  0.45920585     0.35300
C2083       C  0.85287828  0.48534763  0.51040343    -0.22100
C2084       C  0.85232614  0.48493609  0.49016867    -0.22100
C2085       C  0.65320635  0.48348579  0.51249034    -0.22100
C2086       C  0.65260070  0.48265420  0.49217949    -0.22100
C2087       C  0.77137583  0.50708860  0.56232922    -0.23200
C2088       C  0.73811277  0.50615770  0.56265431    -0.23200
C2089       C  0.76856146  0.50518652  0.43969819    -0.23200
C2090       C  0.73543990  0.50171949  0.43976278    -0.23200
C2091       C  0.81314160  0.49935005  0.53645489    -0.18500
C2092       C  0.81156553  0.49908726  0.46486858    -0.18500
C2093       C  0.69360519  0.49134555  0.46558933    -0.18500
C2094       C  0.69525335  0.49623472  0.53764441    -0.18500
H2095       H  0.87339035  0.47884365  0.51952229     0.14400
H2096       H  0.87235987  0.47813030  0.48065678     0.14400
H2097       H  0.63255007  0.47940908  0.52214011     0.14400
H2098       H  0.63134068  0.47786439  0.48322781     0.14400
H2099       H  0.78695894  0.51052933  0.57502089     0.12600
H2100       H  0.72308426  0.50891524  0.57568505     0.12600
H2101       H  0.78355870  0.50932479  0.42677565     0.12600
H2102       H  0.72009513  0.50283801  0.42684205     0.12600
H2103       H  0.78113901  0.51317072  0.50087259     0.25900
H2104       H  0.72673898  0.50405663  0.50114248     0.25900
C2105       C  0.49771292  0.20926848  0.26479865     0.86200
C2106       C  0.52819069  0.21529545  0.25226075    -0.54000
C2107       C  0.52712559  0.24247854  0.24102197     0.09200
C2108       C  0.49581256  0.26255771  0.24394657     0.20100
C2109       C  0.49548050  0.24083749  0.27710968    -0.54700
C2110       C  0.49434625  0.26874925  0.26631821     0.09300
C2111       C  0.96947142  0.21289810  0.25035297    -0.54300
C2112       C  0.96707198  0.24118256  0.24011495     0.09800
H2113       H  0.54906056  0.19935329  0.25217410     0.14400
H2114       H  0.49620338  0.28460046  0.23480109     0.00100
H2115       H  0.99692618  0.24103726  0.29220906     0.14700
H2116       H  0.95045490  0.19471665  0.25000483     0.14400
C2117       C  0.98219723  0.35613087  0.28437461    -0.06000
C2118       C  0.00674658  0.35879839  0.29861207    -0.00100
C2119       C  0.52562485  0.33220181  0.30196147    -0.08700
C2120       C  0.52167697  0.30414427  0.29056405    -0.06100
C2121       C  0.99898865  0.30147850  0.27612440    -0.00100
C2122       C  0.97765333  0.32795788  0.27302420    -0.08600
C2123       C  0.94899328  0.32664518  0.25892071     0.61800
H2124       H  0.96619098  0.37654139  0.28236954     0.12500
H2125       H  0.53768825  0.28391915  0.29301839     0.12500
C2126       C  0.55109387  0.33257285  0.31820962     0.62000
F2127       F  0.92838815  0.35269461  0.26141616    -0.23100
F2128       F  0.93090490  0.29910963  0.26227204    -0.20500
F2129       F  0.95971719  0.32719005  0.23962874    -0.20100
F2130       F  0.53678490  0.34053777  0.33605866    -0.20200
F2131       F  0.57525015  0.35476680  0.31369548    -0.20500
F2132       F  0.56569557  0.30274964  0.32048882    -0.23200
C2133       C  0.51165702  0.12052667  0.28181214    -0.06000
C2134       C  0.00356916  0.12277473  0.29994443    -0.00100
C2135       C  0.01815521  0.15194879  0.30641296    -0.08700
C2136       C  0.01745050  0.17901167  0.29385988    -0.06100
C2137       C  0.00286019  0.17811588  0.27498961    -0.00100
C2138       C  0.50873583  0.14694695  0.26889101    -0.08600
C2139       C  0.51686933  0.13944813  0.24741772     0.61800
H2140       H  0.52071101  0.09768395  0.27624999     0.12500
H2141       H  0.02930214  0.20094934  0.29870818     0.12500
C2142       C  0.03404106  0.15475080  0.32658856     0.62000
F2143       F  0.50166047  0.11087093  0.24196026    -0.23100
F2144       F  0.55013882  0.13544753  0.24556480    -0.20500
F2145       F  0.99763891  0.16174342  0.23315765    -0.20100
F2146       F  0.50238225  0.14411869  0.34272966    -0.20200
F2147       F  0.01275125  0.14412527  0.34107872    -0.20500
F2148       F  0.04274265  0.18629320  0.33102541    -0.23200
C2149       C  0.96834686  0.12147745  0.42375199    -0.06000
C2150       C  0.99840360  0.10711391  0.41903371    -0.00100
C2151       C  0.52480032  0.11539798  0.43221506    -0.08700
C2152       C  0.52157509  0.13871285  0.44715333    -0.06100
C2153       C  0.49245088  0.15516638  0.45022221    -0.00100
C2154       C  0.96551124  0.14503861  0.43860996    -0.08600
C2155       C  0.93268581  0.15991379  0.44325873     0.61800
H2156       H  0.94690961  0.11445273  0.41552413     0.12500
H2157       H  0.54221660  0.14531425  0.45624540     0.12500
C2158       C  0.55791448  0.10002262  0.42914875     0.62000
F2159       F  0.90810114  0.14673793  0.43181139    -0.23100
F2160       F  0.93386691  0.19277403  0.43976009    -0.20500
F2161       F  0.92478604  0.15469361  0.46284411    -0.20100
F2162       F  0.57063897  0.10974462  0.41118022    -0.20200
F2163       F  0.55507959  0.06673254  0.42971343    -0.20500
F2164       F  0.57992525  0.10907816  0.44360522    -0.23200
C2165       C  0.52589443  0.36357696  0.42650250    -0.06000
C2166       C  0.00134988  0.36941668  0.41897782    -0.00100
C2167       C  0.97212095  0.35881881  0.42850510    -0.08700
C2168       C  0.97412885  0.33523611  0.44337346    -0.06100
C2169       C  0.50043650  0.32211758  0.44661367    -0.00100
C2170       C  0.52812450  0.34096475  0.44188633    -0.08600
C2171       C  0.56022784  0.33605559  0.45245408     0.61800
H2172       H  0.54652504  0.37912216  0.42332430     0.12500
H2173       H  0.95223749  0.32604288  0.45038243     0.12500
C2174       C  0.93874895  0.37202303  0.42343303     0.62000
F2175       F  0.58482497  0.35508357  0.44455175    -0.23100
F2176       F  0.56951650  0.30412198  0.45071440    -0.20500
F2177       F  0.55701611  0.34375759  0.47220262    -0.20100
F2178       F  0.93014983  0.36251305  0.40457133    -0.20200
F2179       F  0.93915853  0.40536119  0.42478166    -0.20500
F2180       F  0.91483173  0.36086109  0.43620267    -0.23200
C2181       C  0.63142343  0.46462739  0.42692867    -0.06000
C2182       C  0.62430030  0.49432361  0.41780940    -0.00100
C2183       C  0.64132569  0.52250481  0.42421934    -0.08700
C2184       C  0.66070822  0.52064544  0.44120823    -0.06100
C2185       C  0.66792348  0.49107178  0.45007487    -0.00100
C2186       C  0.65444582  0.46227881  0.44222774    -0.08600
C2187       C  0.66551805  0.42930023  0.44923125     0.61800
H2188       H  0.61960506  0.44290665  0.42156561     0.12500
H2189       H  0.67260487  0.54211670  0.44692463     0.12500
C2190       C  0.64185889  0.55371725  0.41250460     0.62000
F2191       F  0.63168438  0.90223747  0.45154186    -0.23100
F2192       F  0.64424663  0.93268212  0.47785970    -0.20500
F2193       F  0.69899248  0.42715108  0.44756252    -0.20100
F2194       F  0.62043786  0.06100245  0.41101197    -0.20200
F2195       F  0.65007234  0.54733418  0.39307583    -0.20500
F2196       F  0.66443818  0.57564267  0.41977299    -0.23200
C2197       C  0.86434795  0.01375224  0.42296536    -0.06000
C2198       C  0.87957780  0.48885554  0.41717439    -0.00100
C2199       C  0.85646322  0.46413474  0.42136861    -0.08700
C2200       C  0.83630023  0.46779646  0.43792612    -0.06100
C2201       C  0.83645483  0.49623334  0.44912238    -0.00100
C2202       C  0.84255007  0.01593572  0.43883618    -0.08600
C2203       C  0.82589453  0.04776804  0.44336483     0.61800
H2204       H  0.86836516  0.03468982  0.41371626     0.12500
H2205       H  0.81884660  0.44910777  0.44177784     0.12500
C2206       C  0.85080864  0.43544174  0.40776062     0.62000
F2207       F  0.83509683  0.07182274  0.43028204    -0.23100
F2208       F  0.83411024  0.05788085  0.46216189    -0.20500
F2209       F  0.79250572  0.04405091  0.44221876    -0.20100
F2210       F  0.87768189  0.41562688  0.40760539    -0.20200
F2211       F  0.84470724  0.44634250  0.38884854    -0.20500
F2212       F  0.82431579  0.41694642  0.41366173    -0.23200
C2213       C  0.63151955  0.52021836  0.57563044    -0.06000
C2214       C  0.62951873  0.49202112  0.58715380    -0.00100
C2215       C  0.64988639  0.46539863  0.58241444    -0.08700
C2216       C  0.66935135  0.46719054  0.56537175    -0.06100
C2217       C  0.67067990  0.49508643  0.55376101    -0.00100
C2218       C  0.65226191  0.52240513  0.55914523    -0.08600
C2219       C  0.66063467  0.06729806  0.55416594     0.61800
H2220       H  0.61598621  0.04942903  0.58028524     0.12500
H2221       H  0.68469379  0.44710029  0.56121949     0.12500
C2222       C  0.65255264  0.43574730  0.59549838     0.62000
F2223       F  0.63694607  0.57815351  0.55627461    -0.23100
F2224       F  0.64386120  0.54923633  0.52866150    -0.20500
F2225       F  0.68448151  0.06944851  0.53980983    -0.20100
F2226       F  0.62432697  0.41764806  0.59432294    -0.20200
F2227       F  0.64090545  0.93801701  0.60371826    -0.20500
F2228       F  0.67812752  0.41610913  0.58987770    -0.23200
C2229       C  0.86792158  0.02221214  0.57887198    -0.06000
C2230       C  0.88129924  0.48908103  0.58386441    -0.00100
C2231       C  0.86585495  0.46142576  0.57539686    -0.08700
C2232       C  0.84449539  0.46598545  0.55951898    -0.06100
C2233       C  0.83852977  0.49662719  0.55179000    -0.00100
C2234       C  0.84755962  0.02692034  0.56266541    -0.08600
C2235       C  0.83976485  0.06155792  0.55709092     0.61800
H2236       H  0.87663687  0.04341342  0.58668183     0.12500
H2237       H  0.83153431  0.44567261  0.55312708     0.12500
C2238       C  0.87080283  0.42730072  0.58301731     0.62000
F2239       F  0.86853803  0.07813871  0.55357143    -0.25100
F2240       F  0.81767440  0.56582109  0.55178363    -0.20500
F2241       F  0.82067336  0.06413832  0.54042815    -0.20100
F2242       F  0.85997292  0.42515353  0.60231954    -0.20200
F2243       F  0.90841399  0.92586204  0.57946640    -0.20500
F2244       F  0.85372781  0.40463382  0.57204635    -0.23200
C2245       C  0.96701479  0.12319755  0.57882090    -0.06000
C2246       C  0.99587525  0.10614228  0.58265555    -0.00100
C2247       C  0.52421018  0.12119989  0.57168020    -0.08700
C2248       C  0.52163474  0.14504871  0.55701310    -0.06100
C2249       C  0.99284318  0.15215937  0.55176518    -0.00100
C2250       C  0.96491711  0.14591135  0.56341775    -0.08600
C2251       C  0.93302685  0.16299859  0.55939166     0.61800
H2252       H  0.94608093  0.11907611  0.58823566     0.12500
H2253       H  0.54283049  0.15250911  0.54859711     0.12500
C2254       C  0.55695739  0.10489405  0.57441150     0.62000
F2255       F  0.90848431  0.15271478  0.57197573    -0.23100
F2256       F  0.92324784  0.15679329  0.54023503    -0.20500
F2257       F  0.43168573  0.19772745  0.55920406    -0.20100
F2258       F  0.04582121  0.05801706  0.57275476    -0.20200
F2259       F  0.56963562  0.11227261  0.59275504    -0.20500
F2260       F  0.57949451  0.11497906  0.56046766    -0.23200
C2261       C  0.96901102  0.34941366  0.58004791    -0.06000
C2262       C  0.99822423  0.36654351  0.58348975    -0.00100
C2263       C  0.53093422  0.36632035  0.56950539    -0.08700
C2264       C  0.52797004  0.34302322  0.55439925    -0.06100
C2265       C  0.99356048  0.32029635  0.55265976    -0.00100
C2266       C  0.96604926  0.32670740  0.56459093    -0.08600
C2267       C  0.93355228  0.31045711  0.56050257     0.61800
H2268       H  0.94837093  0.35382148  0.58961583     0.12500
H2269       H  0.54916551  0.33559973  0.54604754     0.12500
C2270       C  0.56384273  0.38215213  0.57296194     0.62000
F2271       F  0.90960920  0.32070477  0.57345250    -0.23100
F2272       F  0.93627844  0.27735143  0.56229217    -0.20500
F2273       F  0.92372655  0.31781198  0.54153782    -0.20100
F2274       F  0.57615483  0.37220225  0.59089796    -0.20200
F2275       F  0.56070852  0.41540863  0.57278564    -0.20500
F2276       F  0.58618337  0.37401887  0.55846967    -0.23200
C2277       C  0.61003153  0.26811499  0.22082240    -0.06000
C2278       C  0.60993464  0.25245378  0.20245749    -0.00100
C2279       C  0.58121076  0.23627658  0.19610634    -0.08700
C2280       C  0.55362807  0.23619231  0.20853521    -0.06100
C2281       C  0.55432241  0.25042003  0.22728857    -0.00100
C2282       C  0.58296056  0.26656651  0.23364025    -0.08600
C2283       C  0.58497380  0.28171122  0.25395959     0.61800
H2284       H  0.63203858  0.28055790  0.22536777     0.12500
H2285       H  0.53179744  0.22321611  0.20421367     0.12500
C2286       C  0.57985409  0.21810106  0.17666663     0.62000
F2287       F  0.57937098  0.25854923  0.26827411    -0.23100
F2288       F  0.56192070  0.30567980  0.25545576    -0.20500
F2289       F  0.61519810  0.29544339  0.25751050    -0.20100
F2290       F  0.59906341  0.19089785  0.17788931    -0.20200
F2291       F  0.59091829  0.23755002  0.16145331    -0.20500
F2292       F  0.54848352  0.20823520  0.17214190    -0.23200
C2293       C  0.94189836  0.26183150  0.20932918    -0.06000
C2294       C  0.93740187  0.24945263  0.22846432    -0.00100
C2295       C  0.90500309  0.24323242  0.23527905    -0.08700
C2296       C  0.87904831  0.24667367  0.22201116    -0.06100
C2297       C  0.88366138  0.25851165  0.20292334    -0.00100
C2298       C  0.91544389  0.26668019  0.19642103    -0.08600
C2299       C  0.92138157  0.27923983  0.17569085     0.61800
H2300       H  0.96649180  0.26664332  0.20429708     0.12500
H2301       H  0.85454264  0.24048798  0.22674486     0.12500
C2302       C  0.89569929  0.23331662  0.25620916     0.62000
F2303       F  0.95418619  0.28397409  0.17187023    -0.23100
F2304       F  0.90577523  0.30844761  0.17332957    -0.20500
F2305       F  0.90943333  0.25735535  0.16202491    -0.20100
F2306       F  0.86899293  0.25091855  0.26238153    -0.20200
F2307       F  0.91994261  0.23876198  0.26988595    -0.20500
F2308       F  0.88741539  0.20090128  0.25635069    -0.23200
C2309       C  0.77875623  0.12244023  0.07874905    -0.06000
C2310       C  0.75067809  0.14124963  0.08160183    -0.00100
C2311       C  0.72425396  0.13744214  0.06824153    -0.08700
C2312       C  0.72581123  0.11319969  0.05375200    -0.06100
C2313       C  0.75287111  0.09318229  0.05189233    -0.00100
C2314       C  0.78031768  0.09837716  0.06404995    -0.08600
C2315       C  0.81084775  0.07827212  0.06165634     0.61800
H2316       H  0.79916776  0.12582492  0.08861598     0.12500
H2317       H  0.70543967  0.10905280  0.04393372     0.12500
C2318       C  0.69387875  0.15779905  0.06944364     0.62000
F2319       F  0.83632886  0.09037068  0.07281778    -0.23100
F2320       F  0.82064632  0.07807923  0.04210668    -0.20500
F2321       F  0.80467563  0.04693710  0.06763653    -0.20100
F2322       F  0.70199443  0.19018523  0.07102373    -0.20200
F2323       F  0.67607829  0.14804710  0.08567815    -0.20500
F2324       F  0.67446221  0.15419514  0.05289537    -0.23200
C2325       C  0.72271713  0.41437443  0.05916785    -0.06000
C2326       C  0.75304060  0.42791410  0.05449515    -0.00100
C2327       C  0.78096347  0.41821151  0.06497232    -0.08700
C2328       C  0.77742605  0.39502874  0.08002058    -0.06100
C2329       C  0.74690074  0.38156705  0.08514756    -0.00100
C2330       C  0.71892190  0.39132757  0.07430605    -0.08600
C2331       C  0.68517917  0.37755819  0.07819633     0.61800
H2332       H  0.70186200  0.42238583  0.05080343     0.12500
H2333       H  0.79875308  0.38766595  0.08813677     0.12500
C2334       C  0.81420392  0.43280098  0.06048315     0.62000
F2335       F  0.66238298  0.38929896  0.06506695    -0.23100
F2336       F  0.67497957  0.38582632  0.09698932    -0.20500
F2337       F  0.68579919  0.34434399  0.07618972    -0.20100
F2338       F  0.81369678  0.46563363  0.06419192    -0.20200
F2339       F  0.82226023  0.42778309  0.04090767    -0.20500
F2340       F  0.83840446  0.41928414  0.07192285    -0.23200
C2341       C  0.77360515  0.12161380  0.92264350    -0.06000
C2342       C  0.74426524  0.13701228  0.91779312    -0.00100
C2343       C  0.71567051  0.12961091  0.92899004    -0.08700
C2344       C  0.71789725  0.10715227  0.94449729    -0.06100
C2345       C  0.74707365  0.09161953  0.94892846    -0.00100
C2346       C  0.77545165  0.09873748  0.93789340    -0.08600
C2347       C  0.80746103  0.08202432  0.94214013     0.61800
H2348       H  0.79524036  0.12720531  0.91413733     0.12500
H2349       H  0.69660253  0.10085965  0.95316524     0.12500
C2350       C  0.68277462  0.14478546  0.92485374     0.62000
F2351       F  0.83197256  0.09207298  0.92945044    -0.23100
F2352       F  0.80373736  0.04901160  0.93997654    -0.20500
F2353       F  0.81721308  0.08878169  0.96121194    -0.20100
F2354       F  0.67194074  0.13532996  0.90641003    -0.20200
F2355       F  0.68532925  0.17808274  0.92575423    -0.20500
F2356       F  0.65934768  0.13536043  0.93844340    -0.23200
C2357       C  0.77996804  0.39233829  0.92486454    -0.06000
C2358       C  0.75026643  0.37605107  0.92133244    -0.00100
C2359       C  0.72342027  0.38196986  0.93417217    -0.08700
C2360       C  0.72683276  0.40536565  0.94912649    -0.06100
C2361       C  0.75582412  0.42271306  0.95173076    -0.00100
C2362       C  0.78320854  0.41564840  0.93989312    -0.08600
C2363       C  0.81555086  0.43283283  0.94317343     0.61800
H2364       H  0.80061726  0.38732340  0.91541908     0.12500
H2365       H  0.70647725  0.41109159  0.95867635     0.12500
C2366       C  0.69114572  0.36413881  0.93230980     0.62000
F2367       F  0.83973016  0.42100501  0.93092568    -0.23100
F2368       F  0.82545244  0.42865807  0.96248769    -0.20500
F2369       F  0.81235800  0.46547311  0.93947450    -0.20100
F2370       F  0.69630706  0.33116098  0.93192068    -0.20200
F2371       F  0.67558664  0.37365323  0.91523744    -0.20500
F2372       F  0.67054268  0.37057223  0.94802080    -0.23200
C2373       C  0.97957170  0.15220567  0.73380850    -0.06000
C2374       C  0.00109556  0.17809014  0.72934683    -0.00100
C2375       C  0.52829088  0.16788693  0.71583464    -0.08700
C2376       C  0.52557371  0.13998310  0.70418711    -0.06100
C2377       C  0.00003709  0.11975370  0.70663419    -0.00100
C2378       C  0.97846631  0.12338735  0.72272440    -0.08600
C2379       C  0.95482599  0.09664711  0.72855358     0.61800
H2380       H  0.96374864  0.15384562  0.74643411     0.12500
H2381       H  0.54419041  0.13534793  0.69317566     0.12500
C2382       C  0.56014602  0.18637280  0.71301338     0.62000
F2383       F  0.94123704  0.10198881  0.74698681    -0.23100
F2384       F  0.97079444  0.06734741  0.72920503    -0.20500
F2385       F  0.92985570  0.09485789  0.71496726    -0.20100
F2386       F  0.58575717  0.16548217  0.71621235    -0.20200
F2387       F  0.56465498  0.21216158  0.72547497    -0.20500
F2388       F  0.56199951  0.19741425  0.69379578    -0.23200
C2389       C  0.97369750  0.31849960  0.72850957    -0.06000
C2390       C  0.00295542  0.30172030  0.73054944    -0.00100
C2391       C  0.53110591  0.30839461  0.71258485    -0.08700
C2392       C  0.52804948  0.33705546  0.70165290    -0.06100
C2393       C  0.00027539  0.35871985  0.70745585    -0.00100
C2394       C  0.97213292  0.34774057  0.71788083    -0.08600
C2395       C  0.94132556  0.36757705  0.71903104     0.61800
H2396       H  0.95200374  0.30850439  0.73533655     0.12500
H2397       H  0.54746894  0.34399277  0.69165670     0.12500
C2398       C  0.56229306  0.28920022  0.71069217     0.62000
F2399       F  0.92012911  0.35601412  0.73332938    -0.23100
F2400       F  0.92525471  0.36697265  0.70115448    -0.20500
F2401       F  0.94940924  0.39901501  0.72399710    -0.20100
F2402       F  0.55763000  0.26409807  0.69755487    -0.20200
F2403       F  0.57157657  0.27709651  0.72879062    -0.20500
F2404       F  0.58768426  0.30826462  0.70377283    -0.23200
C2405       C  0.56945991  0.27634462  0.77729561    -0.06000
C2406       C  0.54929453  0.24945282  0.78074477    -0.00100
C2407       C  0.55647489  0.22839013  0.79657958    -0.08700
C2408       C  0.58563304  0.23294173  0.80697137    -0.06100
C2409       C  0.60704933  0.25864722  0.80276890    -0.00100
C2410       C  0.59845705  0.28135133  0.78802863    -0.08600
C2411       C  0.62056958  0.30960176  0.78282542     0.61800
H2412       H  0.56319192  0.29249768  0.76537909     0.12500
H2413       H  0.59185317  0.21596760  0.81850132     0.12500
C2414       C  0.53463439  0.20021159  0.80244602     0.62000
F2415       F  0.60915787  0.32669201  0.76674802    -0.23100
F2416       F  0.65135478  0.29849437  0.77821332    -0.20500
F2417       F  0.62248769  0.33064261  0.79864165    -0.20100
F2418       F  0.50271218  0.20490227  0.79675381    -0.20200
F2419       F  0.53464174  0.19640940  0.82273428    -0.20500
F2420       F  0.54613344  0.17215507  0.79390123    -0.23200
C2421       C  0.93473494  0.26778132  0.79159911    -0.06000
C2422       C  0.93301803  0.25469416  0.77253715    -0.00100
C2423       C  0.90157142  0.24900257  0.76429519    -0.08700
C2424       C  0.87405824  0.25050616  0.77670980    -0.06100
C2425       C  0.87632449  0.26169536  0.79615742    -0.00100
C2426       C  0.90684040  0.27233872  0.80340280    -0.08600
C2427       C  0.91007230  0.28757613  0.82371559     0.61800
H2428       H  0.95819431  0.27347376  0.79750994     0.12500
H2429       H  0.85032519  0.24396983  0.77092278     0.12500
C2430       C  0.89520942  0.24317458  0.74249630     0.62000
F2431       F  0.94208289  0.29502105  0.82820508    -0.23100
F2432       F  0.89835130  0.26658642  0.83796002    -0.20500
F2433       F  0.89255935  0.31596736  0.82438798    -0.20100
F2434       F  0.88526001  0.21154810  0.73963343    -0.20200
F2435       F  0.92206156  0.24954395  0.73078327    -0.20500
F2436       F  0.87066692  0.26344857  0.73624137    -0.23200
C2437       C  0.82427746  0.46978565  0.72738903    -0.06000
C2438       C  0.80526511  0.49748196  0.72495432    -0.00100
C2439       C  0.81348130  0.02450267  0.71172409    -0.08700
C2440       C  0.84300310  0.01937746  0.70186514    -0.06100
C2441       C  0.86391280  0.48924108  0.70312157    -0.00100
C2442       C  0.85360601  0.46523470  0.71680111    -0.08600
C2443       C  0.87423154  0.43590221  0.72111022     0.61800
H2444       H  0.81679052  0.45239133  0.73835615     0.12500
H2445       H  0.85176504  0.03804306  0.69195054     0.12500
C2446       C  0.79626559  0.05602044  0.70694359     0.62000
F2447       F  0.85435882  0.91768800  0.73584562    -0.23100
F2448       F  0.89954071  0.94430472  0.72682882    -0.20500
F2449       F  0.87479538  0.41587367  0.70478184    -0.20100
F2450       F  0.76477641  0.05766081  0.71397710    -0.20200
F2451       F  0.79634169  0.55701440  0.68580479    -0.20500
F2452       F  0.80908164  0.57696270  0.71566218    -0.23200
C2453       C  0.65865415  0.47747958  0.69974069    -0.06000
C2454       C  0.62978422  0.49072234  0.70704110    -0.00100
C2455       C  0.62700086  0.99895802  0.72234765    -0.08700
C2456       C  0.65561367  0.00091124  0.73354776    -0.06100
C2457       C  0.68876860  0.49582232  0.72882043    -0.00100
C2458       C  0.68841786  0.48012846  0.71001176    -0.08600
C2459       C  0.71857613  0.46658344  0.70009979     0.61800
H2460       H  0.65783492  0.46589843  0.68540520     0.12500
H2461       H  0.65398685  0.00752354  0.74898834     0.12500
C2462       C  0.59414731  0.00558461  0.73179209     0.62000
F2463       F  0.72689985  0.43771800  0.70886319    -0.23100
F2464       F  0.74405619  0.48826372  0.70127800    -0.20500
F2465       F  0.71704885  0.97515532  0.67460594    -0.20100
F2466       F  0.57320880  0.49713115  0.73311265    -0.20200
F2467       F  0.58083215  0.03306423  0.72361808    -0.20500
F2468       F  0.59661229  0.01020832  0.75197476    -0.23200
C2469       C  0.76968946  0.10490104  0.80003032    -0.06000
C2470       C  0.74515195  0.12776027  0.79749377    -0.00100
C2471       C  0.72045916  0.12199541  0.78352185    -0.08700
C2472       C  0.72074699  0.09286825  0.77297221    -0.06100
C2473       C  0.74478383  0.06890170  0.77560232    -0.00100
C2474       C  0.77025163  0.07553461  0.78958937    -0.08600
C2475       C  0.79921497  0.05408522  0.79475994     0.61800
H2476       H  0.78867533  0.10977988  0.81074171     0.12500
H2477       H  0.70146270  0.08956125  0.76266325     0.12500
C2478       C  0.69409273  0.14675379  0.77929919     0.62000
F2479       F  0.79874708  0.04796648  0.81483581    -0.23100
F2480       F  0.82770056  0.07052858  0.79026750    -0.20500
F2481       F  0.80052397  0.02472490  0.78532008    -0.20100
F2482       F  0.70811844  0.17675474  0.77604512    -0.20200
F2483       F  0.67279699  0.14851777  0.79509411    -0.20500
F2484       F  0.67605379  0.13886981  0.76273634    -0.23200
C2485       C  0.77161931  0.42565832  0.77492661    -0.06000
C2486       C  0.74586979  0.44731306  0.77730617    -0.00100
C2487       C  0.71952316  0.43917750  0.78999116    -0.08700
C2488       C  0.72052249  0.40977720  0.80021161    -0.06100
C2489       C  0.74694959  0.38864465  0.79854963    -0.00100
C2490       C  0.77292960  0.39641736  0.78544602    -0.08600
C2491       C  0.80201611  0.37437767  0.78247366     0.61800
H2492       H  0.79151358  0.43252654  0.76535541     0.12500
H2493       H  0.70092484  0.40367203  0.81026557     0.12500
C2494       C  0.69011700  0.46089912  0.79274065     0.62000
F2495       F  0.82161418  0.38455364  0.76700026    -0.23100
F2496       F  0.79148654  0.34333761  0.77825385    -0.20500
F2497       F  0.82093280  0.37413135  0.79931064    -0.20100
F2498       F  0.67826166  0.47007564  0.77457780    -0.20200
F2499       F  0.69839995  0.48801168  0.80353506    -0.20500
F2500       F  0.66516288  0.44536203  0.80278124    -0.23200
C2501       C  0.58259134  0.22991870  0.06408887    -0.06000
C2502       C  0.58158364  0.25721386  0.05200822    -0.00100
C2503       C  0.60194518  0.28401654  0.05608990    -0.08700
C2504       C  0.62316965  0.28227865  0.07232164    -0.06100
C2505       C  0.62397040  0.25510205  0.08475248    -0.00100
C2506       C  0.60271484  0.22855751  0.08077046    -0.08600
C2507       C  0.59938707  0.19966262  0.09444875     0.61800
H2508       H  0.56635487  0.21000304  0.06062391     0.12500
H2509       H  0.63893202  0.30254877  0.07565173     0.12500
C2510       C  0.60007261  0.31480776  0.04399030     0.62000
F2511       F  0.57467038  0.17885042  0.08865459    -0.23100
F2512       F  0.59246204  0.21004452  0.11339872    -0.20500
F2513       F  0.62776996  0.18224793  0.09446772    -0.20100
F2514       F  0.56961238  0.32832831  0.04625732    -0.20200
F2515       F  0.60534009  0.30836462  0.02424123    -0.20500
F2516       F  0.62313492  0.33731107  0.04984056    -0.23200
C2517       C  0.90133895  0.29024008  0.05810932    -0.06000
C2518       C  0.91657806  0.26100400  0.05373413    -0.00100
C2519       C  0.90980806  0.23325723  0.06509167    -0.08700
C2520       C  0.88598474  0.23527104  0.07987507    -0.06100
C2521       C  0.87042454  0.26455120  0.08449883    -0.00100
C2522       C  0.87898870  0.29297459  0.07375273    -0.08600
C2523       C  0.86557036  0.32618987  0.07867057     0.61800
H2524       H  0.90794062  0.31117084  0.04936816     0.12500
H2525       H  0.88010090  0.21389464  0.08835724     0.12500
C2526       C  0.92846642  0.20207157  0.06202645     0.62000
F2527       F  0.87721770  0.34974964  0.06594385    -0.23100
F2528       F  0.87488169  0.33497324  0.09754409    -0.20500
F2529       F  0.83200545  0.32587199  0.07729188    -0.20100
F2530       F  0.96116332  0.20741538  0.06562764    -0.20200
F2531       F  0.92467898  0.19124195  0.04286612    -0.20500
F2532       F  0.91785118  0.17788247  0.07462340    -0.23200
C2533       C  0.57365123  0.22465397  0.93324692    -0.06000
C2534       C  0.57399431  0.24873315  0.94786557    -0.00100
C2535       C  0.59565599  0.27546244  0.94573633    -0.08700
C2536       C  0.61795455  0.27540445  0.93002914    -0.06100
C2537       C  0.61822103  0.25086886  0.91578936    -0.00100
C2538       C  0.59482417  0.22549255  0.91696826    -0.08600
C2539       C  0.59144380  0.19944779  0.90124162     0.61800
H2540       H  0.55716679  0.20434572  0.93496725     0.12500
H2541       H  0.63537449  0.29510241  0.92883008     0.12500
C2542       C  0.59646219  0.30498405  0.95907113     0.62000
F2543       F  0.56308484  0.18155746  0.90361335    -0.23100
F2544       F  0.61735552  0.17844173  0.90231774    -0.20500
F2545       F  0.59044382  0.21333922  0.88270631    -0.20100
F2546       F  0.62511956  0.30509505  0.96974206    -0.20200
F2547       F  0.57046512  0.30653267  0.97196699    -0.20500
F2548       F  0.59566963  0.33257458  0.94758265    -0.23200
C2549       C  0.89296518  0.28157673  0.94745671    -0.06000
C2550       C  0.90931187  0.25278132  0.95138042    -0.00100
C2551       C  0.90187772  0.22464970  0.94035220    -0.08700
C2552       C  0.87978666  0.22714384  0.92468459    -0.06100
C2553       C  0.86500984  0.25659723  0.91971434    -0.00100
C2554       C  0.87068979  0.28415358  0.93186882    -0.08600
C2555       C  0.85395225  0.31635475  0.92862264     0.61800
H2556       H  0.89890504  0.30254234  0.95636085     0.12500
H2557       H  0.87471968  0.20576844  0.91593129     0.12500
C2558       C  0.91618555  0.19155498  0.94433373     0.62000
F2559       F  0.85971489  0.33775897  0.94395566    -0.23100
F2560       F  0.82062536  0.31183040  0.92743617    -0.20500
F2561       F  0.86549528  0.33044828  0.91146155    -0.20100
F2562       F  0.93866164  0.19145121  0.95944968    -0.20200
F2563       F  0.93132583  0.18030021  0.92742926    -0.20500
F2564       F  0.89127575  0.17043175  0.94932570    -0.23200
C2565       C  0.81000507  0.48900734  0.29370244    -0.06000
C2566       C  0.81410737  0.49190981  0.27317986    -0.00100
C2567       C  0.84276219  0.99098821  0.26460870    -0.08700
C2568       C  0.86935067  0.99001960  0.27759455    -0.06100
C2569       C  0.86859274  0.48541082  0.29816254    -0.00100
C2570       C  0.83689852  0.48549877  0.30641106    -0.08600
C2571       C  0.83177690  0.48234807  0.32853279     0.61800
H2572       H  0.78567124  0.49088350  0.29977498     0.12500
H2573       H  0.89390705  0.99046831  0.27167969     0.12500
C2574       C  0.85014288  0.98933125  0.24268645     0.62000
F2575       F  0.79918771  0.48401876  0.33364074    -0.23100
F2576       F  0.84809459  0.50686748  0.33832783    -0.20500
F2577       F  0.84357883  0.45291338  0.33481975    -0.20100
F2578       F  0.86392448  0.01818596  0.23660619    -0.20200
F2579       F  0.82282574  0.98306434  0.23145094    -0.20500
F2580       F  0.87201898  0.96467351  0.23916229    -0.23200
C2581       C  0.67762342  0.97355003  0.27794515    -0.06000
C2582       C  0.70100965  0.50346694  0.28122710    -0.00100
C2583       C  0.69216323  0.52644888  0.29577958    -0.08700
C2584       C  0.66240502  0.52246985  0.30578721    -0.06100
C2585       C  0.64218430  0.49536473  0.30277567    -0.00100
C2586       C  0.64926603  0.96843469  0.28933339    -0.08600
C2587       C  0.62736097  0.93971074  0.28480362     0.61800
H2588       H  0.68299621  0.95778306  0.26563555     0.12500
H2589       H  0.65521724  0.54068375  0.31642557     0.12500
C2590       C  0.71330243  0.55507274  0.30173436     0.62000
F2591       F  0.63749860  0.92316002  0.26813874    -0.23100
F2592       F  0.59582149  0.94990313  0.28161867    -0.20500
F2593       F  0.63144502  0.42199304  0.30274574    -0.20100
F2594       F  0.74426581  0.55402491  0.29374939    -0.20200
F2595       F  0.71663822  0.55549279  0.32205449    -0.20500
F2596       F  0.69847171  0.58336087  0.29589772    -0.23200
C2597       C  0.72449681  0.10651245  0.20324885    -0.06000
C2598       C  0.75011035  0.12862752  0.20529592    -0.00100
C2599       C  0.77391902  0.12298485  0.21989667    -0.08700
C2600       C  0.77134825  0.09486362  0.23155020    -0.06100
C2601       C  0.74716146  0.07081437  0.22847890    -0.00100
C2602       C  0.72183884  0.07833095  0.21469437    -0.08600
C2603       C  0.69148622  0.05832561  0.21043315     0.61800
H2604       H  0.70603808  0.11115047  0.19221716     0.12500
H2605       H  0.78853661  0.09219333  0.24331782     0.12500
C2606       C  0.80226847  0.14616483  0.22314189     0.62000
F2607       F  0.69461885  0.04443578  0.19194844    -0.23100
F2608       F  0.66451260  0.07820235  0.21027432    -0.20500
F2609       F  0.68517368  0.03465161  0.22407393    -0.20100
F2610       F  0.79098845  0.17732116  0.22557256    -0.20200
F2611       F  0.82298572  0.14501208  0.20704587    -0.20500
F2612       F  0.82017514  0.13832918  0.23972264    -0.23200
C2613       C  0.76990134  0.42371381  0.23158608    -0.06000
C2614       C  0.74364445  0.44494602  0.22975734    -0.00100
C2615       C  0.71634356  0.43535996  0.21835257    -0.08700
C2616       C  0.71811197  0.40682023  0.20720752    -0.06100
C2617       C  0.74531918  0.38651408  0.20788233    -0.00100
C2618       C  0.77108782  0.39429224  0.22107393    -0.08600
C2619       C  0.79947225  0.37166980  0.22443916     0.61800
H2620       H  0.79011524  0.43089014  0.24086083     0.12500
H2621       H  0.69778808  0.40047891  0.19776794     0.12500
C2622       C  0.68446132  0.45353702  0.21770462     0.62000
F2623       F  0.81812979  0.38123908  0.24042439    -0.23100
F2624       F  0.81946333  0.37119100  0.20800426    -0.20500
F2625       F  0.78794131  0.34081829  0.22821314    -0.20100
F2626       F  0.68277139  0.47786884  0.23155492    -0.20200
F2627       F  0.65902398  0.43233915  0.22149324    -0.20500
F2628       F  0.68030505  0.46656018  0.19911648    -0.23200
C2629       C  0.75427381  0.53666704  0.23879139     0.86200
C2630       C  0.78629001  0.52963704  0.25006696    -0.54000
C2631       C  0.78222081  0.00253052  0.26068509     0.09200
C2632       C  0.75003666  0.98358213  0.25947923     0.20100
C2633       C  0.74893157  0.50502105  0.22714158    -0.54700
C2634       C  0.74401558  0.97949988  0.23721448     0.09300
C2635       C  0.72819415  0.53659614  0.25509642    -0.54300
C2636       C  0.72388178  0.00730564  0.26657692     0.09800
H2637       H  0.80853704  0.54359932  0.24897160     0.14400
H2638       H  0.75019265  0.96045167  0.26776311     0.00100
H2639       H  0.74225255  0.00896374  0.21104627     0.14700
H2640       H  0.71120358  0.55631069  0.25717007     0.14400
N2641       N  0.94752716  0.74524855  0.99853202    -0.36900
N2642       N  0.49786174  0.74677271  0.95610765    -0.57400
N2643       N  0.54980237  0.75780048  0.99971432    -0.36900
N2644       N  0.49980485  0.76105310  0.03013983    -0.57400
C2645       C  0.92949842  0.74419583  0.98188882     0.26700
C2646       C  0.92753976  0.75269497  0.01364547     0.26700
C2647       C  0.56849645  0.75306644  0.98356840     0.26700
C2648       C  0.56937351  0.75787566  0.01566928     0.26700
C2649       C  0.97410973  0.72667158  0.96068100     0.35300
C2650       C  0.52527592  0.73309080  0.96311731     0.35300
C2651       C  0.96963639  0.75815927  0.04024389     0.35300
C2652       C  0.52623891  0.76504259  0.04172318     0.35300
C2653       C  0.89741284  0.75123927  0.98635441    -0.22100
C2654       C  0.89607826  0.75622050  0.00651504    -0.22100
C2655       C  0.60080252  0.75087048  0.98900265    -0.22100
C2656       C  0.60134398  0.75350804  0.00939585    -0.22100
C2657       C  0.98643501  0.70154103  0.97177729    -0.23200
C2658       C  0.51811937  0.70541778  0.97372571    -0.23200
C2659       C  0.97877977  0.76054733  0.05987114    -0.23200
C2660       C  0.51651359  0.77086490  0.06103223    -0.23200
C2661       C  0.94222040  0.73760893  0.96291518    -0.18500
C2662       C  0.93688648  0.75559433  0.03367508    -0.18500
C2663       C  0.55914326  0.76199995  0.03557118    -0.18500
C2664       C  0.55532687  0.74925077  0.96447284    -0.18500
H2665       H  0.87712918  0.75232130  0.97622917     0.14400
H2666       H  0.87446654  0.76202549  0.01493880     0.14400
H2667       H  0.62146103  0.74649863  0.97944393     0.14400
H2668       H  0.62282392  0.75225652  0.01855908     0.14400
H2669       H  0.97262461  0.68414778  0.98035041     0.12600
H2670       H  0.53490667  0.69096127  0.98219005     0.12600
H2671       H  0.96316358  0.76020298  0.07276081     0.12600
H2672       H  0.53180627  0.77502039  0.07377441     0.12600
H2673       H  0.97212989  0.74027406  0.99945109     0.25900
H2674       H  0.52498060  0.76210753  0.99918261     0.25900
C2675       C  0.75127973  0.53730703  0.76406557     0.86200
C2676       C  0.72110148  0.53333092  0.75058780    -0.54000
C2677       C  0.71536778  0.00517950  0.73762682     0.09200
C2678       C  0.74508198  0.98409168  0.74250414     0.20100
C2679       C  0.74925284  0.50720913  0.77708410    -0.54700
C2680       C  0.74280488  0.97917247  0.76498293     0.09300
C2681       C  0.78027000  0.53212883  0.75047431    -0.54300
C2682       C  0.77469739  0.00673706  0.73915367     0.09800
H2683       H  0.70183570  0.55105223  0.74999392     0.14400
H2684       H  0.74635184  0.96084304  0.73459626     0.00100
H2685       H  0.73955088  0.00735418  0.79159524     0.14700
H2686       H  0.80010371  0.54948061  0.74927569     0.14400
C2687       C  0.50212994  0.71234436  0.73751628     0.86200
C2688       C  0.96819317  0.71658595  0.75134982    -0.54000
C2689       C  0.96821838  0.74415116  0.76243476     0.09200
C2690       C  0.50104076  0.76657826  0.75756544     0.20100
C2691       C  0.50661895  0.74293435  0.72473781    -0.54700
C2692       C  0.50671776  0.77123274  0.73529616     0.09300
C2693       C  0.52802727  0.71484034  0.75361860    -0.54300
C2694       C  0.52762080  0.74298732  0.76408937     0.09800
H2695       H  0.94630621  0.70200007  0.75035522     0.14400
H2696       H  0.50065281  0.78948121  0.76612317     0.00100
H2697       H  0.50883887  0.74231740  0.70877569     0.14700
H2698       H  0.54591057  0.69609860  0.75614149     0.14400
N2699       N  0.74645123  0.95930019  0.00128555    -0.36900
N2700       N  0.75544169  0.50807328  0.97081275    -0.57400
N2701       N  0.75374890  0.55917800  0.99996216    -0.36900
N2702       N  0.75554980  0.51066871  0.03157299    -0.57400
C2703       C  0.75344800  0.94146807  0.98511441     0.26700
C2704       C  0.75445433  0.94148331  0.01723212     0.26700
C2705       C  0.75855934  0.57707265  0.98346927     0.26700
C2706       C  0.75994912  0.57835222  0.01570524     0.26700
C2707       C  0.73938183  0.98229881  0.95979236     0.35300
C2708       C  0.74981510  0.53333123  0.95866368     0.35300
C2709       C  0.74385403  0.98299578  0.04279875     0.35300
C2710       C  0.75055617  0.53756954  0.04240944     0.35300
C2711       C  0.76575667  0.91182866  0.99084711    -0.22100
C2712       C  0.76633308  0.91181661  0.01115227    -0.22100
C2713       C  0.76711507  0.60830991  0.98883700    -0.22100
C2714       C  0.76820572  0.60906679  0.00915930    -0.22100
C2715       C  0.72834522  0.99140397  0.94132421    -0.23200
C2716       C  0.74186653  0.52221913  0.93997155    -0.23200
C2717       C  0.73452375  0.99292824  0.06150151    -0.23200
C2718       C  0.74193595  0.52926144  0.06157533    -0.23200
C2719       C  0.74680756  0.95042327  0.96542889    -0.18500
C2720       C  0.74936430  0.95066345  0.03708293    -0.18500
C2721       C  0.75622380  0.56950414  0.03579643    -0.18500
C2722       C  0.75400465  0.56628259  0.96378062    -0.18500
H2723       H  0.77315323  0.89209344  0.98138690     0.14400
H2724       H  0.77433673  0.89211991  0.02038898     0.14400
H2725       H  0.77194433  0.62852556  0.97913365     0.14400
H2726       H  0.77396727  0.63000230  0.01810503     0.14400
H2727       H  0.72185226  0.97577574  0.92911768     0.12600
H2728       H  0.73670648  0.53645410  0.92698487     0.12600
H2729       H  0.72850044  0.97781462  0.07402565     0.12600
H2730       H  0.73701322  0.54536261  0.07380996     0.12600
H2731       H  0.73338497  0.98070542  0.00148368     0.25900
H2732       H  0.74343702  0.53630702  0.00054534     0.25900
N2733       N  0.73218652  0.82562627  0.87896413    -0.06400
N2734       N  0.72044756  0.84239617  0.89392453    -0.58500
N2735       N  0.76553794  0.83020485  0.83398566    -0.06100
N2736       N  0.77695290  0.85092071  0.82083535    -0.60600
N2737       N  0.73354053  0.82969802  0.83358749    -0.05600
N2738       N  0.72274785  0.84992461  0.82011832    -0.58500
N2739       N  0.76417379  0.82588322  0.87936556    -0.05300
N2740       N  0.77469299  0.84290267  0.89462307    -0.61000
C2741       C  0.74710214  0.85289949  0.90376207     0.95800
C2742       C  0.75006109  0.86298820  0.81208146     0.95600
N2743       N  0.82020834  0.74465413  0.83169210    -0.06600
N2744       N  0.84190756  0.73440740  0.81876793    -0.59100
N2745       N  0.81850501  0.77212220  0.87774195    -0.04700
N2746       N  0.83826671  0.78161959  0.89194844    -0.60300
N2747       N  0.81825716  0.74045421  0.87647621    -0.06600
N2748       N  0.83785142  0.72788294  0.88970381    -0.59300
N2749       N  0.82078125  0.77641347  0.83278911    -0.04300
N2750       N  0.84307262  0.78833302  0.82064212    -0.60400
Mn2751     Mn  0.79284491  0.80194239  0.85596990     1.18400
C2752       C  0.85569916  0.76183493  0.81182874     0.97900
C2753       C  0.85029644  0.75379934  0.89931832     0.98600
N2754       N  0.67816925  0.77562167  0.83152198    -0.06600
N2755       N  0.65590586  0.78710656  0.81939560    -0.62900
N2756       N  0.67765924  0.74012996  0.87550054    -0.05400
N2757       N  0.65762689  0.72776850  0.88878337    -0.63600
N2758       N  0.67751492  0.77184867  0.87651103    -0.06100
N2759       N  0.65733603  0.78161749  0.89047022    -0.63200
N2760       N  0.67878417  0.74390848  0.83047540    -0.05000
N2761       N  0.65726659  0.73340506  0.81756348    -0.63900
Mn2762     Mn  0.70483366  0.80143601  0.85509920     1.10700
C2763       C  0.64317581  0.76050375  0.81056729     0.99100
C2764       C  0.64493289  0.75384749  0.89800107     0.99200
N2765       N  0.76398889  0.68652954  0.87451908    -0.06100
N2766       N  0.77474093  0.66763235  0.88874432    -0.61500
N2767       N  0.73343972  0.69047640  0.82883602    -0.05400
N2768       N  0.72302198  0.67146419  0.81447233    -0.58200
N2769       N  0.76541316  0.69094869  0.82920405    -0.06700
N2770       N  0.77730101  0.67235714  0.81516800    -0.61100
N2771       N  0.73202693  0.68631447  0.87425957    -0.05700
N2772       N  0.72051241  0.66721972  0.88827822    -0.58200
Mn2773     Mn  0.79240912  0.71506118  0.85291519     1.20200
Mn2774     Mn  0.70494103  0.71456331  0.85220717     1.10100
Cl2775     Cl  0.74875194  0.75828041  0.85398718    -0.86200
C2776       C  0.74736011  0.65571830  0.89738058     0.96100
C2777       C  0.75067791  0.66064879  0.80584191     0.95900
N2778       N  0.67845717  0.74149334  0.16969358    -0.06400
N2779       N  0.65592166  0.72959021  0.18158695    -0.58500
N2780       N  0.67851104  0.77375139  0.12483349    -0.06100
N2781       N  0.65914690  0.78456852  0.11084594    -0.60600
N2782       N  0.67910896  0.74200242  0.12467297    -0.05600
N2783       N  0.66016619  0.73068397  0.11053031    -0.58500
N2784       N  0.67769019  0.77328867  0.16986886    -0.05300
N2785       N  0.65457265  0.78347346  0.18194995    -0.61000
C2786       C  0.64121161  0.75593415  0.18919164     0.95800
C2787       C  0.64767919  0.75743368  0.10202948     0.95600
N2788       N  0.76411110  0.82905714  0.12445991    -0.06600
N2789       N  0.77514330  0.84584887  0.10928605    -0.59100
N2790       N  0.73247265  0.82829388  0.17009596    -0.04700
N2791       N  0.72099069  0.84754841  0.18394091    -0.60300
N2792       N  0.76448474  0.82928488  0.16993087    -0.06600
N2793       N  0.77527119  0.84934123  0.18365742    -0.59300
N2794       N  0.73213245  0.82855982  0.12457471    -0.04300
N2795       N  0.72080769  0.84524017  0.10949467    -0.60400
Mn2796     Mn  0.70466314  0.80172380  0.14744832     1.18400
C2797       C  0.74790646  0.85563367  0.09990543     0.97900
C2798       C  0.74788654  0.86035413  0.19249949     0.98600
N2799       N  0.73449946  0.68941444  0.12430000    -0.06600
N2800       N  0.72360294  0.67176342  0.10947647    -0.62900
N2801       N  0.76698206  0.68971721  0.16954048    -0.05400
N2802       N  0.77890747  0.67025057  0.18310552    -0.63600
N2803       N  0.73498146  0.68883663  0.16984004    -0.06100
N2804       N  0.72467096  0.66864755  0.18363045    -0.63200
N2805       N  0.76644253  0.69021305  0.12411719    -0.05000
N2806       N  0.77786244  0.67318764  0.10916535    -0.63900
Mn2807     Mn  0.70624019  0.71471631  0.14721010     1.10700
C2808       C  0.75083248  0.66189419  0.09999723     0.99100
C2809       C  0.75233286  0.65737759  0.19202439     0.99200
N2810       N  0.82042996  0.77658524  0.16899126    -0.06100
N2811       N  0.84217104  0.78763928  0.18168810    -0.61500
N2812       N  0.81911891  0.74521538  0.12376571    -0.05400
N2813       N  0.83642051  0.73473741  0.10864627    -0.58200
N2814       N  0.81856267  0.77692107  0.12390564    -0.06700
N2815       N  0.83535394  0.78855616  0.10887229    -0.61100
N2816       N  0.82022581  0.74480460  0.16891754    -0.05700
N2817       N  0.84141403  0.73356963  0.18166981    -0.58200
Mn2818     Mn  0.79253403  0.80375088  0.14694844     1.20200
Mn2819     Mn  0.79380040  0.71685051  0.14664533     1.10100
Cl2820     Cl  0.74925407  0.75925582  0.14720375    -0.86200
C2821       C  0.85469050  0.76045377  0.18958323     0.96100
C2822       C  0.84648992  0.76206503  0.09939226     0.95900
N2823       N  0.98543215  0.55803657  0.67046250    -0.06400
N2824       N  0.97440497  0.57850769  0.68380813    -0.58500
N2825       N  0.51802329  0.56104210  0.62490698    -0.06100
N2826       N  0.52861468  0.57899294  0.61001359    -0.60600
N2827       N  0.98488939  0.55664585  0.62504019    -0.05600
N2828       N  0.97308611  0.57333727  0.61015351    -0.58500
N2829       N  0.51661539  0.55985551  0.67048477    -0.05300
N2830       N  0.52759503  0.57910043  0.68447912    -0.61000
C2831       C  0.00157021  0.59137076  0.69197036     0.95800
C2832       C  0.99974169  0.58420814  0.60035164     0.95600
N2833       N  0.56628834  0.97781477  0.62123633    -0.06600
N2834       N  0.58420804  0.96800927  0.60625922    -0.59100
N2835       N  0.57053398  0.50647908  0.67110450    -0.04700
N2836       N  0.58928938  0.51741992  0.68546742    -0.60300
N2837       N  0.56986933  0.97561214  0.66642898    -0.06600
N2838       N  0.59004806  0.96416671  0.67977953    -0.59300
N2839       N  0.57324731  0.50753369  0.62581836    -0.04300
N2840       N  0.59368280  0.51874999  0.61235628    -0.60400
Mn2841     Mn  0.54531214  0.53451540  0.64802934     1.18400
C2842       C  0.59554366  0.99560796  0.59799012     0.97900
C2843       C  0.60095816  0.99087407  0.68921889     0.98600
N2844       N  0.93097455  0.50340799  0.62570781    -0.06600
N2845       N  0.91372374  0.51474060  0.61092545    -0.62900
N2846       N  0.92655598  0.97269153  0.67171507    -0.05400
N2847       N  0.90467832  0.96208745  0.68460055    -0.63600
N2848       N  0.93050441  0.50334847  0.67093627    -0.06100
N2849       N  0.90917412  0.51464838  0.68375697    -0.63200
N2850       N  0.92669205  0.97305259  0.62655827    -0.05000
N2851       N  0.90875707  0.96242329  0.61178009    -0.63900
Mn2852     Mn  0.95741895  0.53094217  0.64818831     1.10700
C2853       C  0.89829563  0.98964493  0.60287914     0.99100
C2854       C  0.89263534  0.98928301  0.69300193     0.99200
N2855       N  0.51657916  0.92105400  0.66728669    -0.06100
N2856       N  0.52921424  0.90195124  0.68077551    -0.61500
N2857       N  0.98043415  0.91915446  0.62533671    -0.05400
N2858       N  0.96899475  0.90181355  0.61044963    -0.58200
N2859       N  0.51275323  0.92242109  0.62181917    -0.06700
N2860       N  0.52240681  0.90541995  0.60638023    -0.61100
N2861       N  0.98131255  0.91837274  0.67099064    -0.05700
N2862       N  0.97069520  0.89827656  0.68476208    -0.58200
Mn2863     Mn  0.54217112  0.94844755  0.64407906     1.20200
Mn2864     Mn  0.95304873  0.94502298  0.64873006     1.10100
Cl2865     Cl  0.99729057  0.98887543  0.64840879    -0.86200
C2866       C  0.99818055  0.88672568  0.69312630     0.96100
C2867       C  0.99593156  0.89133101  0.60077490     0.95900
N2868       N  0.57327753  0.97332720  0.33481011    -0.06400
N2869       N  0.59647745  0.96275361  0.32295667    -0.58500
N2870       N  0.56968488  0.50933087  0.37809633    -0.06100
N2871       N  0.58826173  0.52077818  0.39236515    -0.60600
N2872       N  0.56907811  0.97161250  0.37981706    -0.05600
N2873       N  0.58769779  0.96033623  0.39407461    -0.58500
N2874       N  0.57325069  0.50934879  0.33305419    -0.05300
N2875       N  0.59605319  0.52082135  0.32117023    -0.61000
C2876       C  0.61060496  0.98997754  0.31585104     0.95800
C2877       C  0.59896500  0.98727176  0.40324276     0.95600
N2878       N  0.98329647  0.55946215  0.37675263    -0.06600
N2879       N  0.97113839  0.57614720  0.39164900    -0.59100
N2880       N  0.51712381  0.56201075  0.33147034    -0.04700
N2881       N  0.52800182  0.58229536  0.31788598    -0.60300
N2882       N  0.98474030  0.55820211  0.33138464    -0.06600
N2883       N  0.97283457  0.57681104  0.31745608    -0.59300
N2884       N  0.51476938  0.56192026  0.37697743    -0.04300
N2885       N  0.52462862  0.57872951  0.39244860    -0.60400
Mn2886     Mn  0.54430431  0.53647269  0.35481780     1.18400
C2887       C  0.99773728  0.58770387  0.40117106     0.97900
C2888       C  0.99944110  0.59017718  0.30898019     0.98600
N2889       N  0.51458408  0.91785050  0.37759486    -0.06600
N2890       N  0.52426977  0.89913816  0.39220064    -0.62900
N2891       N  0.98415895  0.91765873  0.33104379    -0.05400
N2892       N  0.97375862  0.89658808  0.31782283    -0.63600
N2893       N  0.51746399  0.91995306  0.33235146    -0.06100
N2894       N  0.52956825  0.90021860  0.31898364    -0.63200
N2895       N  0.98277255  0.91667509  0.37629247    -0.05000
N2896       N  0.97096112  0.89819968  0.39051934    -0.63900
Mn2897     Mn  0.54414768  0.94496318  0.35608470     1.10700
C2898       C  0.99765954  0.88662069  0.39969684     0.99100
C2899       C  0.00150407  0.88439272  0.31005153     0.99200
N2900       N  0.93159536  0.50314067  0.33148596    -0.06100
N2901       N  0.91033707  0.51341224  0.31839818    -0.61500
N2902       N  0.92950994  0.97046991  0.37624018    -0.05400
N2903       N  0.91269846  0.95879041  0.39121385    -0.58200
N2904       N  0.93119272  0.50417097  0.37653774    -0.06700
N2905       N  0.91246636  0.51519002  0.39079822    -0.61100
N2906       N  0.92886718  0.97155989  0.33119697    -0.05700
N2907       N  0.90715603  0.96055077  0.31845443    -0.58200
Mn2908     Mn  0.95716969  0.53191877  0.35397241     1.20200
Mn2909     Mn  0.95566471  0.94346453  0.35354032     1.10100
Cl2910     Cl  0.99951844  0.98714326  0.35421802    -0.86200
C2911       C  0.89419494  0.98758400  0.31065328     0.96100
C2912       C  0.90255683  0.98529083  0.40103058     0.95900
N2913       N  0.48874664  0.78852995  0.50056554    -0.36900
N2914       N  0.48838289  0.73844411  0.47067854    -0.57400
N2915       N  0.48603203  0.68975352  0.50145962    -0.36900
N2916       N  0.48327012  0.73984320  0.53139038    -0.57400
C2917       C  0.48442883  0.80625985  0.48406097     0.26700
C2918       C  0.47945083  0.80692170  0.51606727     0.26700
C2919       C  0.48062699  0.67078681  0.48552785     0.26700
C2920       C  0.48136200  0.67139130  0.51769406     0.26700
C2921       C  0.49676408  0.76386189  0.45925236     0.35300
C2922       C  0.49240954  0.71178679  0.45946214     0.35300
C2923       C  0.48805109  0.76647364  0.54256151     0.35300
C2924       C  0.48971471  0.71429348  0.54307757     0.35300
C2925       C  0.47243514  0.83639737  0.48911076    -0.22100
C2926       C  0.46938758  0.83684722  0.50935562    -0.22100
C2927       C  0.47263684  0.63982203  0.49173319    -0.22100
C2928       C  0.47334557  0.64014565  0.51203390    -0.22100
C2929       C  0.50592264  0.75334614  0.44062332    -0.23200
C2930       C  0.50296229  0.72035043  0.44071530    -0.23200
C2931       C  0.49700476  0.75784198  0.56153043    -0.23200
C2932       C  0.49807942  0.72474352  0.56185534    -0.23200
C2933       C  0.49296193  0.79651752  0.46474114    -0.18500
C2934       C  0.48272251  0.79839251  0.53614151    -0.18500
C2935       C  0.48631697  0.68160740  0.53739224    -0.18500
C2936       C  0.48553089  0.67987137  0.46561363    -0.18500
H2937       H  0.46697342  0.85617318  0.47926103     0.14400
H2938       H  0.46120925  0.85707370  0.51816513     0.14400
H2939       H  0.46767039  0.61892747  0.48258203     0.14400
H2940       H  0.46887219  0.61959356  0.52153291     0.14400
H2941       H  0.51329803  0.76796425  0.42813843     0.12600
H2942       H  0.50789089  0.70450890  0.42835709     0.12600
H2943       H  0.50202460  0.77371567  0.57387324     0.12600
H2944       H  0.50404223  0.71005356  0.57452046     0.12600
H2945       H  0.50128476  0.76685770  0.50136607     0.25900
H2946       H  0.49621201  0.71269923  0.50132679     0.25900
N2947       N  0.80226108  0.99317255  0.50183401    -0.36900
N2948       N  0.75191337  0.00518235  0.53134153    -0.57400
N2949       N  0.70243583  0.99404355  0.50148204    -0.36900
N2950       N  0.75284801  0.98613925  0.47180059    -0.57400
C2951       C  0.82080213  0.00146210  0.51743186     0.26700
C2952       C  0.82129596  0.99534553  0.48559686     0.26700
C2953       C  0.68372503  0.00505170  0.51645503     0.26700
C2954       C  0.68414517  0.99467972  0.48495711     0.26700
C2955       C  0.77771998  0.00167146  0.54340481     0.35300
C2956       C  0.72534500  0.00445084  0.54310077     0.35300
C2957       C  0.77940454  0.98037477  0.46060009     0.35300
C2958       C  0.72679515  0.97852818  0.46061931     0.35300
C2959       C  0.85225018  0.00829164  0.51119741    -0.22100
C2960       C  0.85253095  0.00460729  0.49103938    -0.22100
C2961       C  0.65292751  0.01216009  0.50948032    -0.22100
C2962       C  0.65324187  0.00581924  0.48955367    -0.22100
C2963       C  0.76758451  0.99985334  0.56290955    -0.23200
C2964       C  0.73439177  0.00177802  0.56272781    -0.23200
C2965       C  0.77019550  0.96914364  0.44214917    -0.23200
C2966       C  0.73684942  0.96787895  0.44218136    -0.23200
C2967       C  0.81050687  0.00128991  0.53725444    -0.18500
C2968       C  0.81168926  0.98777000  0.46613952    -0.18500
C2969       C  0.69411253  0.98427376  0.46600254    -0.18500
C2970       C  0.69292117  0.00634659  0.53648402    -0.18500
H2971       H  0.87281948  0.01523947  0.52023587     0.14400
H2972       H  0.87345898  0.00801156  0.48151151     0.14400
H2973       H  0.63231516  0.02081666  0.51789619     0.14400
H2974       H  0.63286214  0.00866636  0.47963859     0.14400
H2975       H  0.78253014  0.99740736  0.57594150     0.12600
H2976       H  0.71873881  0.00098603  0.57559625     0.12600
H2977       H  0.78583105  0.96313101  0.42981363     0.12600
H2978       H  0.72170995  0.96077727  0.42985107     0.12600
H2979       H  0.77913331  0.98318208  0.50265458     0.25900
H2980       H  0.72490835  0.98309025  0.50290365     0.25900
C2981       C  0.49836620  0.71044408  0.26177920     0.86200
C2982       C  0.52896101  0.71774618  0.24966762    -0.54000
C2983       C  0.52731248  0.74513121  0.23869709     0.09200
C2984       C  0.49555214  0.76442441  0.24177887     0.20100
C2985       C  0.49524092  0.74131618  0.27463249    -0.54700
C2986       C  0.49366837  0.76965632  0.26422388     0.09300
C2987       C  0.96958103  0.70988264  0.24738742    -0.54300
C2988       C  0.96731615  0.73836174  0.23756566     0.09800
H2989       H  0.55047587  0.70279788  0.24970408     0.14400
H2990       H  0.49532354  0.78673314  0.23289665     0.00100
H2991       H  0.99799173  0.73911008  0.29024314     0.14700
H2992       H  0.95136675  0.69086980  0.24614369     0.14400
C2993       C  0.97763599  0.85227177  0.28326585    -0.06000
C2994       C  0.00210880  0.85525976  0.29748820    -0.00100
C2995       C  0.52643372  0.83344598  0.29895353    -0.08700
C2996       C  0.52150954  0.80503587  0.28807145    -0.06100
C2997       C  0.99695509  0.79901541  0.27400536    -0.00100
C2998       C  0.97462532  0.82471007  0.27126732    -0.08600
C2999       C  0.94678066  0.82318083  0.25663783     0.61800
H3000       H  0.96072411  0.87203838  0.28163467     0.12500
H3001       H  0.53775353  0.78491948  0.29018282     0.12500
C3002       C  0.55588422  0.83576836  0.31243260     0.62000
F3003       F  0.92532310  0.84853822  0.25906313    -0.23100
F3004       F  0.92936704  0.79509273  0.25932258    -0.20500
F3005       F  0.95855371  0.82466676  0.23757792    -0.20100
F3006       F  0.54598423  0.84074973  0.33171846    -0.20200
F3007       F  0.57578237  0.86093425  0.30633888    -0.20500
F3008       F  0.57436216  0.80792256  0.31203595    -0.23200
C3009       C  0.51459059  0.62246505  0.27874458    -0.06000
C3010       C  0.99790418  0.61970355  0.29696741    -0.00100
C3011       C  0.98338038  0.64826507  0.30408993    -0.08700
C3012       C  0.98330628  0.67552474  0.29187587    -0.06100
C3013       C  0.99761696  0.67569808  0.27288840    -0.00100
C3014       C  0.51242420  0.64893810  0.26586850    -0.08600
C3015       C  0.52410113  0.64289909  0.24482284     0.61800
H3016       H  0.52692711  0.60071874  0.27395557     0.12500
H3017       H  0.97051644  0.69654626  0.29705401     0.12500
C3018       C  0.96803374  0.65024151  0.32453083     0.62000
F3019       F  0.51547713  0.61195652  0.23896398    -0.23100
F3020       F  0.55765438  0.64546920  0.24407326    -0.20500
F3021       F  0.00538578  0.66177310  0.23047877    -0.20100
F3022       F  0.48338564  0.64043648  0.33807503    -0.20200
F3023       F  0.93994553  0.63170121  0.32506798    -0.20500
F3024       F  0.95978242  0.68158245  0.32953804    -0.23200
C3025       C  0.96765447  0.62775456  0.42125656    -0.06000
C3026       C  0.99630797  0.60986132  0.41848940    -0.00100
C3027       C  0.52104919  0.61669474  0.43184278    -0.08700
C3028       C  0.51657102  0.63892480  0.44727267    -0.06100
C3029       C  0.48673239  0.65403000  0.45042691    -0.00100
C3030       C  0.96467192  0.65061035  0.43652017    -0.08600
C3031       C  0.93416852  0.67095337  0.43818175     0.61800
H3032       H  0.94791045  0.62461358  0.41087591     0.12500
H3033       H  0.53672908  0.64566833  0.45672381     0.12500
C3034       C  0.55424464  0.60167702  0.42929257     0.62000
F3035       F  0.91120902  0.66243124  0.42416192    -0.23100
F3036       F  0.94190845  0.70317334  0.43546881    -0.20500
F3037       F  0.92031239  0.66696672  0.45664125    -0.20100
F3038       F  0.56850009  0.61367962  0.41228551    -0.20200
F3039       F  0.55117238  0.56842827  0.42821961    -0.20500
F3040       F  0.57476371  0.60870143  0.44493454    -0.23200
C3041       C  0.52045798  0.86360013  0.42996450    -0.06000
C3042       C  0.99698393  0.86337673  0.41653976    -0.00100
C3043       C  0.97309410  0.83856430  0.41839245    -0.08700
C3044       C  0.97359927  0.81850196  0.43516370    -0.06100
C3045       C  0.49404721  0.82111734  0.44881393    -0.00100
C3046       C  0.52123088  0.84159797  0.44575071    -0.08600
C3047       C  0.55149162  0.83891438  0.45842321     0.61800
H3048       H  0.54073649  0.88001192  0.42767402     0.12500
H3049       H  0.95515339  0.79994559  0.43704696     0.12500
C3050       C  0.94849204  0.83159226  0.40220945     0.62000
F3051       F  0.57536343  0.86075336  0.45274914    -0.23100
F3052       F  0.56410373  0.80815382  0.45665471    -0.20500
F3053       F  0.54397308  0.84479088  0.47798277    -0.20100
F3054       F  0.96429887  0.82916335  0.38420180    -0.20200
F3055       F  0.92576410  0.85597761  0.40142966    -0.20500
F3056       F  0.93198802  0.80279699  0.40538533    -0.23200
C3057       C  0.62630718  0.95922801  0.43093983    -0.06000
C3058       C  0.62396312  0.98706263  0.41908525    -0.00100
C3059       C  0.64607800  0.01318979  0.42229003    -0.08700
C3060       C  0.66796997  0.01125321  0.43806071    -0.06100
C3061       C  0.66958051  0.98391740  0.45002555    -0.00100
C3062       C  0.64921957  0.95706650  0.44628745    -0.08600
C3063       C  0.65214664  0.92640485  0.45838669     0.61800
H3064       H  0.60991559  0.93915754  0.42817285     0.12500
H3065       H  0.68450928  0.03108501  0.44117200     0.12500
C3066       C  0.64805338  0.04249743  0.40885454     0.62000
F3067       F  0.65193746  0.40459556  0.43811963    -0.23100
F3068       F  0.65666592  0.42457031  0.46868426    -0.20500
F3069       F  0.68372803  0.91511277  0.45744853    -0.20100
F3070       F  0.61186663  0.56810956  0.41330462    -0.20200
F3071       F  0.65126760  0.03261174  0.38943582    -0.20500
F3072       F  0.67457959  0.06201917  0.41320448    -0.23200
C3073       C  0.88046040  0.51683138  0.42896408    -0.06000
C3074       C  0.88080647  0.98496118  0.41854029    -0.00100
C3075       C  0.87618646  0.95749916  0.43090031    -0.08700
C3076       C  0.85387863  0.95969159  0.44661686    -0.06100
C3077       C  0.83679003  0.98815902  0.45040604    -0.00100
C3078       C  0.85846111  0.52149579  0.44454259    -0.08600
C3079       C  0.85752715  0.55377258  0.45525112     0.61800
H3080       H  0.89795348  0.53564969  0.42546415     0.12500
H3081       H  0.84902948  0.93898113  0.45594184     0.12500
C3082       C  0.89457163  0.92610372  0.42787983     0.62000
F3083       F  0.88017085  0.57542432  0.44770530    -0.23100
F3084       F  0.86414053  0.54972954  0.47505821    -0.20500
F3085       F  0.82699739  0.56720322  0.45323064    -0.20100
F3086       F  0.92770317  0.93223039  0.42716405    -0.20200
F3087       F  0.88463837  0.91146793  0.41054012    -0.20500
F3088       F  0.88899823  0.90444223  0.44308025    -0.23200
C3089       C  0.62810556  0.02831253  0.57440427    -0.06000
C3090       C  0.62045436  0.99751124  0.58202578    -0.00100
C3091       C  0.63773709  0.97024578  0.57477093    -0.08700
C3092       C  0.65946692  0.97459868  0.55903991    -0.06100
C3093       C  0.66691492  0.00519310  0.55159447    -0.00100
C3094       C  0.65195229  0.03281018  0.55976362    -0.08600
C3095       C  0.65501893  0.55378993  0.54768171     0.61800
H3096       H  0.61657209  0.54067363  0.57957881     0.12500
H3097       H  0.67210811  0.95407906  0.55279150     0.12500
C3098       C  0.63463972  0.93679097  0.58368497     0.62000
F3099       F  0.67166629  0.08348057  0.57075754    -0.23100
F3100       F  0.63319540  0.08262767  0.54723297    -0.20500
F3101       F  0.68714056  0.56393616  0.54700463    -0.20100
F3102       F  0.60376377  0.92511265  0.58047259    -0.20200
F3103       F  0.65789782  0.44499366  0.61486112    -0.20500
F3104       F  0.65622480  0.91508241  0.57538446    -0.23200
C3105       C  0.87593778  0.51969889  0.57540665    -0.06000
C3106       C  0.87705665  0.99118257  0.58522721    -0.00100
C3107       C  0.86582485  0.96361902  0.57458327    -0.08700
C3108       C  0.84510905  0.96850132  0.55844458    -0.06100
C3109       C  0.83558976  0.99944187  0.55266729    -0.00100
C3110       C  0.85492146  0.52390871  0.55935456    -0.08600
C3111       C  0.85004892  0.55716465  0.55044077     0.61800
H3112       H  0.88820225  0.54062007  0.58152626     0.12500
H3113       H  0.83528893  0.94805233  0.55038029     0.12500
C3114       C  0.87495450  0.92921944  0.57998355     0.62000
F3115       F  0.86840947  0.58059397  0.55995061    -0.25100
F3116       F  0.82362768  0.07624153  0.57259992    -0.20500
F3117       F  0.85923151  0.55670714  0.53079067    -0.20100
F3118       F  0.86325019  0.92188724  0.59861725    -0.20200
F3119       F  0.90337592  0.41925817  0.58192051    -0.20500
F3120       F  0.86192714  0.90680789  0.56697845    -0.23200
C3121       C  0.96783273  0.62271166  0.58020518    -0.06000
C3122       C  0.99793206  0.60741012  0.58344454    -0.00100
C3123       C  0.52538919  0.62125670  0.57175817    -0.08700
C3124       C  0.52006535  0.64381380  0.55658134    -0.06100
C3125       C  0.99007138  0.65306502  0.55265141    -0.00100
C3126       C  0.96349205  0.64564408  0.56515047    -0.08600
C3127       C  0.93071763  0.66190048  0.56257002     0.61800
H3128       H  0.94756666  0.61704023  0.58985104     0.12500
H3129       H  0.54008334  0.65202265  0.54739979     0.12500
C3130       C  0.55918462  0.60729799  0.57418137     0.62000
F3131       F  0.90815262  0.65138273  0.57639122    -0.23100
F3132       F  0.91858518  0.65510545  0.54400532    -0.20500
F3133       F  0.42719842  0.69177911  0.56380653    -0.20100
F3134       F  0.05437687  0.56580935  0.57223144    -0.20200
F3135       F  0.57210199  0.61669318  0.59212131    -0.20500
F3136       F  0.58025505  0.61780566  0.55951648    -0.23200
C3137       C  0.96537292  0.85159908  0.58011647    -0.06000
C3138       C  0.99499300  0.86787838  0.58377300    -0.00100
C3139       C  0.51817027  0.86425124  0.56817260    -0.08700
C3140       C  0.51372663  0.84069940  0.55348337    -0.06100
C3141       C  0.98931436  0.82144461  0.55292184    -0.00100
C3142       C  0.96216756  0.82818977  0.56508774    -0.08600
C3143       C  0.93007267  0.81044943  0.56232101     0.61800
H3144       H  0.94469690  0.85669087  0.58951788     0.12500
H3145       H  0.53369192  0.83406879  0.54384608     0.12500
C3146       C  0.55054924  0.88162347  0.56924864     0.62000
F3147       F  0.90605391  0.82225685  0.57470481    -0.23100
F3148       F  0.93398899  0.77801532  0.56639301    -0.20500
F3149       F  0.91957927  0.81387752  0.54307820    -0.20100
F3150       F  0.56633794  0.87315612  0.58646124    -0.20200
F3151       F  0.54527963  0.91457271  0.56866531    -0.20500
F3152       F  0.57078212  0.87386068  0.55357604    -0.23200
C3153       C  0.60711393  0.77570278  0.21673100    -0.06000
C3154       C  0.61019394  0.75494401  0.20046955    -0.00100
C3155       C  0.58382100  0.73415941  0.19542351    -0.08700
C3156       C  0.55603362  0.73373689  0.20760666    -0.06100
C3157       C  0.55385483  0.75301948  0.22454940    -0.00100
C3158       C  0.57957984  0.77462001  0.22914946    -0.08600
C3159       C  0.57869017  0.79509759  0.24762558     0.61800
H3160       H  0.62725607  0.79171685  0.22018969     0.12500
H3161       H  0.53625598  0.71704783  0.20454578     0.12500
C3162       C  0.58467572  0.71238783  0.17736794     0.62000
F3163       F  0.57765710  0.77516865  0.26394751    -0.23100
F3164       F  0.55150896  0.81452003  0.24729982    -0.20500
F3165       F  0.60582788  0.81489234  0.24926161    -0.20100
F3166       F  0.60628257  0.68744846  0.18041228    -0.20200
F3167       F  0.59410110  0.72994730  0.16094089    -0.20500
F3168       F  0.55444782  0.69888950  0.17345663    -0.23200
C3169       C  0.94203308  0.75939338  0.20719259    -0.06000
C3170       C  0.93771877  0.74709933  0.22634109    -0.00100
C3171       C  0.90550471  0.74200316  0.23377365    -0.08700
C3172       C  0.87921259  0.74752814  0.22118449    -0.06100
C3173       C  0.88362398  0.75928886  0.20211912    -0.00100
C3174       C  0.91531784  0.76531551  0.19477877    -0.08600
C3175       C  0.92074116  0.77631981  0.17365462     0.61800
H3176       H  0.96658709  0.76306758  0.20174296     0.12500
H3177       H  0.85465388  0.74235053  0.22626122     0.12500
C3178       C  0.89675202  0.73036808  0.25448364     0.62000
F3179       F  0.95350128  0.77855234  0.16898951    -0.23100
F3180       F  0.90699325  0.80637030  0.17098043    -0.20500
F3181       F  0.90647891  0.75453956  0.16075079    -0.20100
F3182       F  0.87014676  0.74729326  0.26149632    -0.20200
F3183       F  0.92128695  0.73474348  0.26809806    -0.20500
F3184       F  0.88855673  0.69795893  0.25365924    -0.23200
C3185       C  0.78121741  0.62408241  0.07838258    -0.06000
C3186       C  0.75160708  0.63965969  0.08264229    -0.00100
C3187       C  0.72423931  0.63362600  0.07027135    -0.08700
C3188       C  0.72742615  0.61159457  0.05459887    -0.06100
C3189       C  0.75655027  0.59539031  0.05098769    -0.00100
C3190       C  0.78413432  0.60185837  0.06276750    -0.08600
C3191       C  0.81640445  0.58534181  0.05874794     0.61800
H3192       H  0.80209404  0.62889801  0.08765683     0.12500
H3193       H  0.70677101  0.60586054  0.04530746     0.12500
C3194       C  0.69157722  0.64970866  0.07345903     0.62000
F3195       F  0.84051977  0.59581421  0.07151161    -0.23100
F3196       F  0.82644149  0.59197682  0.03967701    -0.20500
F3197       F  0.81307871  0.55230746  0.06096181    -0.20100
F3198       F  0.69551937  0.68291252  0.07385831    -0.20200
F3199       F  0.67814645  0.63903209  0.09102710    -0.20500
F3200       F  0.66972152  0.64242152  0.05856096    -0.23200
C3201       C  0.72308462  0.90482407  0.05467507    -0.06000
C3202       C  0.75025736  0.92513963  0.05254424    -0.00100
C3203       C  0.77797185  0.92014618  0.06442932    -0.08700
C3204       C  0.77635424  0.89672700  0.07942749    -0.06100
C3205       C  0.74826500  0.87773517  0.08256266    -0.00100
C3206       C  0.72186714  0.88049009  0.06916836    -0.08600
C3207       C  0.69254332  0.85802311  0.06971072     0.61800
H3208       H  0.70258867  0.90837497  0.04490873     0.12500
H3209       H  0.79692251  0.89377819  0.08918884     0.12500
C3210       C  0.80900746  0.93961875  0.06132746     0.62000
F3211       F  0.67620814  0.85820767  0.05187493    -0.23100
F3212       F  0.67134340  0.86788962  0.08438000    -0.20500
F3213       F  0.70198170  0.82651684  0.07314539    -0.20100
F3214       F  0.80387375  0.97141384  0.06661471    -0.20200
F3215       F  0.81836500  0.93833191  0.04171749    -0.20500
F3216       F  0.83442718  0.92788409  0.07253177    -0.23200
C3217       C  0.77789596  0.62032494  0.92035406    -0.06000
C3218       C  0.74760608  0.63310455  0.91470923    -0.00100
C3219       C  0.71944414  0.62447171  0.92596209    -0.08700
C3220       C  0.72290027  0.60328106  0.94211870    -0.06100
C3221       C  0.75313487  0.59064694  0.94750201    -0.00100
C3222       C  0.78121263  0.59941245  0.93659332    -0.08600
C3223       C  0.81465938  0.58719389  0.94230958     0.61800
H3224       H  0.79934047  0.62698874  0.91196009     0.12500
H3225       H  0.70181893  0.59590888  0.95066133     0.12500
C3226       C  0.68584069  0.63745147  0.92133723     0.62000
F3227       F  0.83843902  0.59701106  0.92905796    -0.23100
F3228       F  0.81467574  0.55383105  0.94285476    -0.20500
F3229       F  0.82289069  0.59905433  0.96071479    -0.20100
F3230       F  0.67612015  0.62690287  0.90287750    -0.20200
F3231       F  0.68649513  0.67083911  0.92191305    -0.20500
F3232       F  0.66266600  0.62710164  0.93483333    -0.23200
C3233       C  0.77445140  0.89608362  0.92331817    -0.06000
C3234       C  0.74649538  0.87678081  0.92031926    -0.00100
C3235       C  0.71909585  0.88105584  0.93300663    -0.08700
C3236       C  0.72041621  0.90528895  0.94757055    -0.06100
C3237       C  0.74783993  0.92503696  0.94992792    -0.00100
C3238       C  0.77555044  0.92029493  0.93792174    -0.08600
C3239       C  0.80602363  0.94082561  0.94064415     0.61800
H3240       H  0.79537328  0.89258146  0.91383052     0.12500
H3241       H  0.69977952  0.90940919  0.95721453     0.12500
C3242       C  0.68863792  0.86015224  0.93165412     0.62000
F3243       F  0.83087776  0.93139095  0.92812197    -0.23100
F3244       F  0.81705305  0.93816016  0.95983415    -0.20500
F3245       F  0.79920177  0.97283368  0.93678042    -0.20100
F3246       F  0.69698843  0.82785885  0.93216303    -0.20200
F3247       F  0.67220894  0.86679737  0.91437579    -0.20500
F3248       F  0.66743162  0.86579360  0.94718974    -0.23200
C3249       C  0.97965200  0.65370849  0.73132587    -0.06000
C3250       C  0.00238939  0.67884265  0.72758869    -0.00100
C3251       C  0.52806062  0.67232292  0.71180255    -0.08700
C3252       C  0.52460270  0.64377279  0.70082437    -0.06100
C3253       C  0.00155680  0.62038133  0.70497607    -0.00100
C3254       C  0.97860371  0.62486456  0.72029169    -0.08600
C3255       C  0.95385897  0.59875801  0.72561935     0.61800
H3256       H  0.96297764  0.65576527  0.74348542     0.12500
H3257       H  0.54156576  0.63917770  0.68885739     0.12500
C3258       C  0.55874355  0.69161559  0.70713089     0.62000
F3259       F  0.93673156  0.60616727  0.74264009    -0.23100
F3260       F  0.96967198  0.56981525  0.72871826    -0.20500
F3261       F  0.93149061  0.59506316  0.71058102    -0.20100
F3262       F  0.58525899  0.67113629  0.70741157    -0.20200
F3263       F  0.56538356  0.71584628  0.72036443    -0.20500
F3264       F  0.55621297  0.70469267  0.68843439    -0.23200
C3265       C  0.97794319  0.82101035  0.73133595    -0.06000
C3266       C  0.00610031  0.80209320  0.73016655    -0.00100
C3267       C  0.53513948  0.81325831  0.71374723    -0.08700
C3268       C  0.53234787  0.84170282  0.70266779    -0.06100
C3269       C  0.99962977  0.85835138  0.70668690    -0.00100
C3270       C  0.97402972  0.84899320  0.71971557    -0.08600
C3271       C  0.94274038  0.86809313  0.72146946     0.61800
H3272       H  0.95841869  0.81297382  0.74091021     0.12500
H3273       H  0.55171956  0.84807044  0.69248165     0.12500
C3274       C  0.56626278  0.79407658  0.71186259     0.62000
F3275       F  0.92331034  0.85716696  0.73683292    -0.23100
F3276       F  0.92501352  0.86525256  0.70423583    -0.20500
F3277       F  0.94998127  0.90022846  0.72500704    -0.20100
F3278       F  0.56385146  0.77344411  0.69588049    -0.20200
F3279       F  0.57243502  0.77658296  0.72875740    -0.20500
F3280       F  0.59261361  0.81454227  0.70894083    -0.23200
C3281       C  0.57118026  0.77886518  0.77673967    -0.06000
C3282       C  0.55272650  0.75048660  0.77908408    -0.00100
C3283       C  0.56170852  0.72790256  0.79369272    -0.08700
C3284       C  0.59144075  0.73220638  0.80341067    -0.06100
C3285       C  0.61124956  0.75955368  0.80025869    -0.00100
C3286       C  0.60021664  0.78415619  0.78736006    -0.08600
C3287       C  0.61928374  0.81525328  0.78422648     0.61800
H3288       H  0.56339832  0.79626831  0.76585242     0.12500
H3289       H  0.59894395  0.71400608  0.81391008     0.12500
C3290       C  0.54080933  0.69911573  0.79969693     0.62000
F3291       F  0.60528764  0.83456616  0.76994962    -0.23100
F3292       F  0.65069091  0.80832019  0.77826092    -0.20500
F3293       F  0.62011360  0.83272359  0.80162457    -0.20100
F3294       F  0.50933807  0.70089800  0.79264518    -0.20200
F3295       F  0.53883257  0.69768688  0.82006958    -0.20500
F3296       F  0.55493575  0.67102053  0.79283733    -0.23200
C3297       C  0.94356878  0.75378409  0.79508516    -0.06000
C3298       C  0.93978233  0.75392746  0.77450711    -0.00100
C3299       C  0.90865765  0.76026994  0.76632558    -0.08700
C3300       C  0.88198692  0.76385715  0.77915692    -0.06100
C3301       C  0.88550170  0.76193522  0.79963657    -0.00100
C3302       C  0.91678514  0.75761939  0.80788614    -0.08600
C3303       C  0.92164712  0.75658233  0.83007680     0.61800
H3304       H  0.96753181  0.74921053  0.80105459     0.12500
H3305       H  0.85792415  0.76762027  0.77306581     0.12500
C3306       C  0.90176050  0.76383200  0.74442286     0.62000
F3307       F  0.95407864  0.75283358  0.83502252    -0.23100
F3308       F  0.90430488  0.73100662  0.83805597    -0.20500
F3309       F  0.91083540  0.78508435  0.83840970    -0.20100
F3310       F  0.88002121  0.74005472  0.73862180    -0.20200
F3311       F  0.92907944  0.76171707  0.73263342    -0.20500
F3312       F  0.88787295  0.79368334  0.74113436    -0.23200
C3313       C  0.81952929  0.97180808  0.72717624    -0.06000
C3314       C  0.80201571  0.00063926  0.72517704    -0.00100
C3315       C  0.81475050  0.52064533  0.71053326    -0.08700
C3316       C  0.84415900  0.51637556  0.70029515    -0.06100
C3317       C  0.86121281  0.99107858  0.70416014    -0.00100
C3318       C  0.84919310  0.96661492  0.71701997    -0.08600
C3319       C  0.86833850  0.93613021  0.72100265     0.61800
H3320       H  0.81049963  0.95391398  0.73748878     0.12500
H3321       H  0.85173339  0.53469935  0.68981221     0.12500
C3322       C  0.79541283  0.55089979  0.70588211     0.62000
F3323       F  0.86225267  0.41824715  0.73690435    -0.23100
F3324       F  0.90552529  0.44569820  0.72570691    -0.20500
F3325       F  0.86964092  0.91735499  0.70414069    -0.20100
F3326       F  0.76304110  0.54812850  0.71121050    -0.20200
F3327       F  0.79473004  0.05974595  0.68667182    -0.20500
F3328       F  0.81399128  0.08149325  0.71474296    -0.23200
C3329       C  0.65988206  0.98375183  0.69397391    -0.06000
C3330       C  0.62952638  0.99099451  0.70221265    -0.00100
C3331       C  0.62946965  0.50496710  0.72593131    -0.08700
C3332       C  0.65869465  0.50645112  0.73668192    -0.06100
C3333       C  0.68668686  0.99587789  0.72515067    -0.00100
C3334       C  0.68881232  0.98619164  0.70502021    -0.08600
C3335       C  0.72094534  0.97968334  0.69471045     0.61800
H3336       H  0.66072488  0.97706842  0.67852035     0.12500
H3337       H  0.65827405  0.51721936  0.75123043     0.12500
C3338       C  0.59848960  0.51925183  0.73446116     0.62000
F3339       F  0.73481120  0.95202034  0.70212824    -0.23100
F3340       F  0.74179280  0.00549816  0.69726297    -0.20500
F3341       F  0.71343618  0.46040693  0.68025507    -0.20100
F3342       F  0.57337816  0.97970489  0.72852601    -0.20200
F3343       F  0.59043775  0.54673423  0.72403941    -0.20500
F3344       F  0.60202833  0.52761943  0.75413416    -0.23200
C3345       C  0.76778111  0.60406926  0.80311231    -0.06000
C3346       C  0.75175314  0.63022707  0.79458971    -0.00100
C3347       C  0.73908595  0.62735989  0.77539071    -0.08700
C3348       C  0.74050268  0.59719954  0.76594048    -0.06100
C3349       C  0.75402054  0.56971330  0.77506580    -0.00100
C3350       C  0.77127375  0.57448389  0.79321403    -0.08600
C3351       C  0.79490470  0.55078075  0.80258251     0.61800
H3352       H  0.77869801  0.60721313  0.81755238     0.12500
H3353       H  0.73150677  0.59529228  0.75102903     0.12500
C3354       C  0.72520049  0.65633297  0.76473284     0.62000
F3355       F  0.77953241  0.53437559  0.81778511    -0.23100
F3356       F  0.82118966  0.56736118  0.81050422    -0.20500
F3357       F  0.80760329  0.52907357  0.78918715    -0.20100
F3358       F  0.74858177  0.68045107  0.76364401    -0.20200
F3359       F  0.69839472  0.66776254  0.77486719    -0.20500
F3360       F  0.71559508  0.64875636  0.74569692    -0.23200
C3361       C  0.77443193  0.93408625  0.77860900    -0.06000
C3362       C  0.74390096  0.94732859  0.77479386    -0.00100
C3363       C  0.71554130  0.93151667  0.78162927    -0.08700
C3364       C  0.71884687  0.90376255  0.79333391    -0.06100
C3365       C  0.74954437  0.89106257  0.79819532    -0.00100
C3366       C  0.77794696  0.90581164  0.78993066    -0.08600
C3367       C  0.81192267  0.89248306  0.79291450     0.61800
H3368       H  0.79569605  0.94678540  0.77308237     0.12500
H3369       H  0.69714864  0.89205209  0.79900075     0.12500
C3370       C  0.68198921  0.94369092  0.77626153     0.62000
F3371       F  0.83475748  0.90821857  0.78125383    -0.23100
F3372       F  0.81254980  0.86012248  0.78783997    -0.20500
F3373       F  0.82110100  0.89637037  0.81239450    -0.20100
F3374       F  0.67898389  0.94394284  0.75597504    -0.20200
F3375       F  0.67763965  0.97459174  0.78352148    -0.20500
F3376       F  0.65746278  0.92420486  0.78381689    -0.23200
C3377       C  0.58622817  0.73236796  0.06242865    -0.06000
C3378       C  0.58391944  0.76097615  0.05153092    -0.00100
C3379       C  0.60062706  0.78893705  0.05798435    -0.08700
C3380       C  0.62168807  0.78646642  0.07424440    -0.06100
C3381       C  0.62472247  0.75757566  0.08502742    -0.00100
C3382       C  0.60507742  0.73053601  0.07967668    -0.08600
C3383       C  0.60184342  0.70074186  0.09262164     0.61800
H3384       H  0.57168627  0.71183549  0.05776074     0.12500
H3385       H  0.63563068  0.80742565  0.07879806     0.12500
C3386       C  0.59527829  0.82133710  0.04809664     0.62000
F3387       F  0.57675621  0.68065707  0.08648171    -0.23100
F3388       F  0.59521883  0.70982017  0.11188101    -0.20500
F3389       F  0.63022045  0.68320381  0.09200109    -0.20100
F3390       F  0.56250083  0.82871965  0.04817391    -0.20200
F3391       F  0.60628980  0.82017247  0.02882359    -0.20500
F3392       F  0.61150455  0.84606086  0.05775437    -0.23200
C3393       C  0.90297736  0.78734106  0.05676749    -0.06000
C3394       C  0.91086288  0.75708546  0.04895244    -0.00100
C3395       C  0.89662918  0.72888255  0.05699359    -0.08700
C3396       C  0.87532945  0.73197259  0.07312337    -0.06100
C3397       C  0.86797996  0.76218499  0.08156462    -0.00100
C3398       C  0.88179505  0.79064451  0.07301188    -0.08600
C3399       C  0.87508673  0.82440202  0.08084589     0.61800
H3400       H  0.91448431  0.80838437  0.05024646     0.12500
H3401       H  0.86446348  0.71042535  0.07938733     0.12500
C3402       C  0.90427392  0.69564090  0.04872555     0.62000
F3403       F  0.89166566  0.84794614  0.07028079    -0.23100
F3404       F  0.88500786  0.82680817  0.10028505    -0.20500
F3405       F  0.84221217  0.83096687  0.07943106    -0.20100
F3406       F  0.93749278  0.69053963  0.04896975    -0.20200
F3407       F  0.89320546  0.69339698  0.02953008    -0.20500
F3408       F  0.88954942  0.67125027  0.05956974    -0.23200
C3409       C  0.57656371  0.72706881  0.93291054    -0.06000
C3410       C  0.57574734  0.75303993  0.94630300    -0.00100
C3411       C  0.59573023  0.78049896  0.94256847    -0.08700
C3412       C  0.61799595  0.77940259  0.92677339    -0.06100
C3413       C  0.61997685  0.75270045  0.91398945    -0.00100
C3414       C  0.59794167  0.72645306  0.91667270    -0.08600
C3415       C  0.59693443  0.69743183  0.90290673     0.61800
H3416       H  0.56114118  0.70629731  0.93574142     0.12500
H3417       H  0.63427025  0.79976963  0.92448909     0.12500
C3418       C  0.59489976  0.81122163  0.95484814     0.62000
F3419       F  0.57015928  0.67780702  0.90650851    -0.23100
F3420       F  0.62450167  0.67908142  0.90559329    -0.20500
F3421       F  0.59515326  0.70742960  0.88346961    -0.20100
F3422       F  0.62074853  0.81130573  0.96786024    -0.20200
F3423       F  0.56614493  0.81441389  0.96528607    -0.20500
F3424       F  0.59780077  0.83796464  0.94271473    -0.23200
C3425       C  0.91625861  0.77223156  0.93774952    -0.06000
C3426       C  0.92149700  0.74120842  0.94524737    -0.00100
C3427       C  0.90503595  0.71444649  0.93691292    -0.08700
C3428       C  0.88196535  0.71998712  0.92212768    -0.06100
C3429       C  0.87568899  0.75113998  0.91486298    -0.00100
C3430       C  0.89417586  0.77773273  0.92225013    -0.08600
C3431       C  0.89140299  0.81158836  0.91381839     0.61800
H3432       H  0.92952364  0.79218326  0.94433092     0.12500
H3433       H  0.86855829  0.69966447  0.91613865     0.12500
C3434       C  0.91187933  0.68014237  0.94357637     0.62000
F3435       F  0.91414977  0.83253097  0.92188633    -0.23100
F3436       F  0.86085459  0.82389411  0.91777432    -0.20500
F3437       F  0.89673527  0.81081147  0.89364090    -0.20100
F3438       F  0.90663136  0.67731188  0.96366527    -0.20200
F3439       F  0.94384824  0.67256721  0.93929289    -0.20500
F3440       F  0.89215145  0.65776038  0.93412793    -0.23200
C3441       C  0.80631716  0.98825280  0.29295043    -0.06000
C3442       C  0.81079802  0.99238758  0.27256231    -0.00100
C3443       C  0.84583279  0.48899901  0.26495604    -0.08700
C3444       C  0.87260579  0.48690769  0.27770931    -0.06100
C3445       C  0.86492333  0.98767800  0.29801891    -0.00100
C3446       C  0.83299113  0.98548546  0.30587654    -0.08600
C3447       C  0.82724876  0.98073990  0.32781466     0.61800
H3448       H  0.78175633  0.98840123  0.29877578     0.12500
H3449       H  0.89703135  0.48636163  0.27160161     0.12500
C3450       C  0.85298475  0.48788620  0.24297981     0.62000
F3451       F  0.79440208  0.97960440  0.33242479    -0.23100
F3452       F  0.84123582  0.00592158  0.33826853    -0.20500
F3453       F  0.84102777  0.95197949  0.33374298    -0.20100
F3454       F  0.86744418  0.51664797  0.23728269    -0.20200
F3455       F  0.82550201  0.48265584  0.23171301    -0.20500
F3456       F  0.87424655  0.46288188  0.23903410    -0.23200
C3457       C  0.68185230  0.47554887  0.27890654    -0.06000
C3458       C  0.69894704  0.99938730  0.28175588    -0.00100
C3459       C  0.69369008  0.01887797  0.29862952    -0.08700
C3460       C  0.66442586  0.01519188  0.30919108    -0.06100
C3461       C  0.64174278  0.99079880  0.30456900    -0.00100
C3462       C  0.65259493  0.47087613  0.28949967    -0.08600
C3463       C  0.63253275  0.44054559  0.28580844     0.61800
H3464       H  0.68938533  0.45786612  0.26806554     0.12500
H3465       H  0.65967602  0.03112856  0.32157010     0.12500
C3466       C  0.71865173  0.04254745  0.30675201     0.62000
F3467       F  0.64563259  0.42172710  0.27089762    -0.23100
F3468       F  0.60127836  0.44880917  0.28032657    -0.20500
F3469       F  0.62784011  0.91842677  0.30050749    -0.20100
F3470       F  0.74795641  0.04186470  0.29672451    -0.20200
F3471       F  0.72488625  0.03485378  0.32624759    -0.20500
F3472       F  0.70642992  0.07352407  0.30594260    -0.23200
C3473       C  0.72818834  0.60514481  0.20234909    -0.06000
C3474       C  0.75324416  0.62784908  0.20464162    -0.00100
C3475       C  0.77801869  0.62166806  0.21856251    -0.08700
C3476       C  0.77693308  0.59254267  0.22932862    -0.06100
C3477       C  0.75306203  0.56817261  0.22620716    -0.00100
C3478       C  0.72719861  0.57561818  0.21269952    -0.08600
C3479       C  0.69876148  0.55306621  0.20784684     0.61800
H3480       H  0.70958327  0.61027852  0.19155038     0.12500
H3481       H  0.79480590  0.58962059  0.24066791     0.12500
C3482       C  0.80541095  0.64580035  0.22238430     0.62000
F3483       F  0.70880782  0.52928594  0.19495888    -0.23100
F3484       F  0.67361355  0.56929825  0.19869746    -0.20500
F3485       F  0.68567354  0.53943482  0.22460243    -0.20100
F3486       F  0.79268916  0.67607849  0.22604486    -0.20200
F3487       F  0.82579773  0.64723153  0.20613968    -0.20500
F3488       F  0.82412805  0.63730282  0.23850515    -0.23200
C3489       C  0.76832046  0.92605959  0.23031067    -0.06000
C3490       C  0.74240378  0.94742020  0.22735010    -0.00100
C3491       C  0.71675061  0.93824993  0.21455700    -0.08700
C3492       C  0.71989842  0.90989821  0.20339419    -0.06100
C3493       C  0.74674909  0.88939139  0.20539498    -0.00100
C3494       C  0.77088815  0.89692348  0.21964560    -0.08600
C3495       C  0.79904905  0.87442055  0.22379850     0.61800
H3496       H  0.78719525  0.93284993  0.24065747     0.12500
H3497       H  0.70114191  0.90384868  0.19278373     0.12500
C3498       C  0.68568385  0.95743307  0.21248510     0.62000
F3499       F  0.81578698  0.88342490  0.24066308    -0.23100
F3500       F  0.82068884  0.87494713  0.20814356    -0.20500
F3501       F  0.78755991  0.84326965  0.22656048    -0.20100
F3502       F  0.67783664  0.97291972  0.22989290    -0.20200
F3503       F  0.65975894  0.93730696  0.20783639    -0.20500
F3504       F  0.68939205  0.97979382  0.19755413    -0.23200
loop_ 
_geom_bond_atom_site_label_1 
_geom_bond_atom_site_label_2 
_geom_bond_distance 
_geom_bond_site_symmetry_2 
_ccdc_geom_bond_type 
C1            C2   1.551       .  S
C1            C7   1.536       .  S
C1            C5   1.537       .  S
C1          C849   1.551       .  S
C2            H9   1.084       .  S
C2          C879   1.367       .  D
C3            C4   1.538       .  S
C3          C878   1.367       .  D
C3          C814   1.487       .  S
C4            C8   1.534       .  S
C4            C6   1.532       .  S
C4           H10   1.111       .  S
C5          H887   1.085       .  S
C5          C882   1.365   1_545  D
C6          C881   1.367       .  D
C6          C862   1.481       .  S
C7           H12   1.082       .  S
C7          C884   1.367       .  D
C8          C883   1.367       .  D
C8          C830   1.484       .  S
H11         C881   1.080       .  S
N13          C18   1.347   1_556  A
N13          C17   1.352       .  A
N13          H45   1.037       .  S
N14          C22   1.350   1_655  A
N14        C1773   1.351       .  A
N15          C20   1.354   1_556  A
N15          C19   1.352       .  A
N15          H46   1.040       .  S
N16          C24   1.349   1_655  A
N16        C1775   1.349       .  A
C17          C25   1.382       .  A
C17          C33   1.413       .  A
C18          C34   1.421       .  A
C18          C26   1.393       .  A
C19          C27   1.387       .  A
C19          C36   1.414       .  A
C20          C35   1.414       .  A
C20          C28   1.386       .  A
C21        N1766   1.356       .  A
C21          C33   1.401       .  A
C21          C29   1.385       .  A
C22          C36   1.412       .  A
C22          C30   1.386       .  A
C23        N1768   1.352       .  A
C23          C31   1.388       .  A
C23          C34   1.423       .  A
C24          C32   1.386       .  A
C24          C35   1.409       .  A
C25          C26   1.380   1_556  A
C25          H37   1.082       .  S
C26          H38   1.082       .  S
C27          C28   1.378   1_556  A
C27          H39   1.082       .  S
C28          H40   1.082       .  S
C29        C1782   1.362       .  A
C29          H41   1.082       .  S
C30        C1781   1.372   1_455  A
C30          H42   1.082       .  S
C31        C1784   1.372       .  A
C31          H43   1.082       .  S
C32        C1783   1.369   1_455  A
C32          H44   1.082       .  S
C33         C798   1.489       .  S
C34         C766   1.485       .  S
C35         C750   1.489       .  S
C36         C782   1.487       .  S
C47          C48   1.550       .  S
C47          C53   1.524       .  S
C47          C51   1.537       .  S
C47         C721   1.542       .  S
C48          H55   1.083       .  S
C48         C925   1.370       .  D
C49          C50   1.545       .  S
C49         C924   1.375       .  D
C49         C705   1.505       .  S
C50          C54   1.554       .  S
C50          C52   1.553       .  S
C50          H56   1.104       .  S
C51         H933   1.084       .  S
C51         C928   1.365   1_545  D
C52         C927   1.363       .  D
C52         C734   1.499       .  S
C53          H58   1.087       .  S
C53         C930   1.361       .  D
C54         C929   1.358       .  D
C54         C686   1.487       .  S
H57         C927   1.080       .  S
C59          C65   1.527   1_655  S
C59          C63   1.547   1_655  S
C59        C1812   1.545       .  S
C59        C2374   1.559   1_655  S
C60        C1811   1.547       .  S
C60          H67   1.082       .  S
C60          C61   1.364       .  D
C61        C1814   1.540       .  S
C61         C670   1.486       .  S
C62          C66   1.554   1_655  S
C62          C64   1.535   1_655  S
C62        C1813   1.556       .  S
C62          H68   1.109       .  S
C63          H69   1.081       .  S
C63          C64   1.369       .  D
C64        C2390   1.490       .  S
C65          H70   1.087       .  S
C65          C66   1.367       .  D
C66         C654   1.501       .  S
N71          C76   1.352       .  A
N71          C75   1.351   1_554  A
N71         H103   1.033       .  S
N72          C80   1.352       .  A
N72         C955   1.353   1_545  A
N73          C78   1.353       .  A
N73          C77   1.352   1_554  A
N73         H104   1.036       .  S
N74          C82   1.353       .  A
N74         C957   1.352   1_545  A
C75          C83   1.388       .  A
C75          C91   1.417       .  A
C76          C92   1.415       .  A
C76          C84   1.387       .  A
C77          C85   1.388       .  A
C77          C94   1.417       .  A
C78          C93   1.416       .  A
C78          C86   1.387       .  A
C79         N948   1.352       .  A
C79          C91   1.418       .  A
C79          C87   1.387       .  A
C80          C94   1.417       .  A
C80          C88   1.387       .  A
C81         N950   1.351       .  A
C81          C89   1.386       .  A
C81          C92   1.413       .  A
C82          C90   1.387       .  A
C82          C93   1.416       .  A
C83          C84   1.375   1_556  A
C83          H95   1.082       .  S
C84          H96   1.082       .  S
C85          C86   1.378   1_556  A
C85          H97   1.082       .  S
C86          H98   1.082       .  S
C87         C964   1.371       .  A
C87          H99   1.082       .  S
C88         C963   1.374   1_545  A
C88         H100   1.082       .  S
C89         C966   1.373       .  A
C89         H101   1.082       .  S
C90         C965   1.372   1_545  A
C90         H102   1.082       .  S
C91         C609   1.486       .  S
C92         C574   1.486       .  S
C93         C561   1.489       .  S
C94         C593   1.488       .  S
N105        N106   1.318       .  A
N105        N111   1.314       .  A
N105       Mn134   2.202       .  S
N106        C113   1.352       .  A
N107        N109   1.316       .  A
N107        N108   1.322       .  A
N107       Mn123   2.211       .  S
N108        C114   1.355       .  A
N109        N110   1.320       .  A
N109       Mn134   2.208       .  S
N110        C114   1.356       .  A
N111        N112   1.321       .  A
N111       Mn123   2.204       .  S
N112        C113   1.357       .  A
C113        C606   1.497       .  S
C114        C737   1.491       .  S
N115        N121   1.317       .  A
N115        N116   1.322       .  A
N115       Mn145   2.211       .  S
N116        C124   1.354       .  A
N117        N118   1.323       .  A
N117        N119   1.313       .  A
N117       Mn123   2.209       .  S
N118        C125   1.357       .  A
N119        N120   1.315       .  A
N119       Mn145   2.181       .  S
N120        C125   1.352       .  A
N121        N122   1.320       .  A
N121       Mn123   2.206       .  S
N122        C124   1.352       .  A
Mn123      Cl147   2.554       .  S
C124        C673   1.476       .  S
C125        C801   1.493       .  S
N126        N127   1.321       .  A
N126        N132   1.317       .  A
N126       Mn134   2.206       .  S
N127        C135   1.353       .  A
N128        N130   1.314       .  A
N128        N129   1.319       .  A
N128       Mn146   2.198       .  S
N129        C136   1.352       .  A
N130        N131   1.321       .  A
N130       Mn134   2.203       .  S
N131        C136   1.355       .  A
N132        N133   1.319       .  A
N132       Mn146   2.202       .  S
N133        C135   1.352       .  A
Mn134      Cl147   2.546       .  S
C135        C657   1.470       .  S
C136        C785   1.489       .  S
N137        N138   1.319       .  A
N137        N143   1.313       .  A
N137       Mn145   2.202       .  S
N138        C148   1.355       .  A
N139        N140   1.321       .  A
N139        N141   1.315       .  A
N139       Mn146   2.207       .  S
N140        C149   1.354       .  A
N141        N142   1.318       .  A
N141       Mn145   2.191       .  S
N142        C149   1.351       .  A
N143        N144   1.321       .  A
N143       Mn146   2.201       .  S
N144        C148   1.354       .  A
Mn145      Cl147   2.541       .  S
Mn146      Cl147   2.550       .  S
C148        C590   1.493       .  S
C149        C718   1.476       .  S
N150        N151   1.320       .  A
N150        N156   1.317       .  A
N150       Mn179   2.210       .  S
N151        C158   1.352       .  A
N152        N154   1.315       .  A
N152        N153   1.324       .  A
N152       Mn168   2.220       .  S
N153        C159   1.359       .  A
N154        N155   1.319       .  A
N154       Mn179   2.210       .  S
N155        C159   1.353       .  A
N156        N157   1.324       .  A
N156       Mn168   2.216       .  S
N157        C158   1.355       .  A
C158        C526   1.488       .  S
C159        C753   1.501       .  S
N160        N166   1.313       .  A
N160        N161   1.319       .  A
N160       Mn190   2.184       .  S
N161        C169   1.353       .  A
N162        N163   1.320       .  A
N162        N164   1.316       .  A
N162       Mn168   2.223       .  S
N163        C170   1.359       .  A
N164        N165   1.319       .  A
N164       Mn190   2.194       .  S
N165        C170   1.352       .  A
N166        N167   1.318       .  A
N166       Mn168   2.201       .  S
N167        C169   1.353       .  A
Mn168      Cl192   2.545       .  S
C169        C577   1.487       .  S
C170        C865   1.491       .  S
N171        N172   1.322       .  A
N171        N177   1.313       .  A
N171       Mn179   2.209       .  S
N172        C180   1.357       .  A
N173        N175   1.315       .  A
N173        N174   1.316       .  A
N173       Mn191   2.195       .  S
N174        C181   1.350       .  A
N175        N176   1.324       .  A
N175       Mn179   2.221       .  S
N176        C181   1.360       .  A
N177        N178   1.318       .  A
N177       Mn191   2.188       .  S
N178        C180   1.353       .  A
Mn179      Cl192   2.554       .  S
C180        C558   1.495       .  S
C181        C846   1.501       .  S
N182        N183   1.323       .  A
N182        N188   1.315       .  A
N182       Mn190   2.205       .  S
N183        C193   1.354       .  A
N184        N185   1.316       .  A
N184        N186   1.313       .  A
N184       Mn191   2.192       .  S
N185        C194   1.353       .  A
N186        N187   1.322       .  A
N186       Mn190   2.192       .  S
N187        C194   1.354       .  A
N188        N189   1.320       .  A
N188       Mn191   2.202       .  S
N189        C193   1.352       .  A
Mn190      Cl192   2.559       .  S
Mn191      Cl192   2.532       .  S
C193        C545   1.479       .  S
C194        C769   1.482       .  S
N195        N196   1.321       .  A
N195       N1953   1.313       .  A
N195       Mn224   2.199       .  S
N196        C203   1.354       .  A
N197        N198   1.320       .  A
N197       N1951   1.314   1_455  A
N197       Mn213   2.204       .  S
N198       C1956   1.354   1_455  A
N199        N200   1.324       .  A
N199       N1949   1.313       .  A
N199       Mn224   2.213       .  S
N200        C204   1.359       .  A
N201        N202   1.321       .  A
N201       N1947   1.315   1_455  A
N201       Mn213   2.209       .  S
N202       C1955   1.355   1_455  A
C203       N1954   1.354       .  A
C203        C625   1.481       .  S
C204       N1950   1.351       .  A
C204        C494   1.497       .  S
N205        N206   1.320       .  A
N205       N1087   1.315       .  A
N205       Mn235   2.215       .  S
N206        C214   1.355       .  A
N207        N208   1.320       .  A
N207       N1085   1.317   1_545  A
N207       Mn213   2.201       .  S
N208       C1091   1.352   1_545  A
N209        N210   1.321       .  A
N209       N1083   1.317       .  A
N209       Mn235   2.210       .  S
N210        C215   1.354       .  A
N211        N212   1.322       .  A
N211       N1081   1.314   1_545  A
N211       Mn213   2.207       .  S
N212       C1090   1.357   1_545  A
Mn213     Cl2865   2.554   1_445  S
C214       N1088   1.355       .  A
C214        C462   1.500       .  S
C215       N1084   1.354       .  A
C215        C702   1.475       .  S
N216        N217   1.318       .  A
N216       N1098   1.313   1_545  A
N216       Mn224   2.194       .  S
N217       C1101   1.355   1_545  A
N218        N219   1.323       .  A
N218       N1096   1.315       .  A
N218       Mn236   2.213       .  S
N219        C226   1.356       .  A
N220        N221   1.315       .  A
N220       N1094   1.314   1_545  A
N220       Mn224   2.200       .  S
N221       C1102   1.354   1_545  A
N222        N223   1.322       .  A
N222       N1092   1.313       .  A
N222       Mn236   2.208       .  S
N223        C225   1.355       .  A
Mn224     Cl1113   2.540   1_545  S
C225       N1093   1.352       .  A
C225        C478   1.485       .  S
C226       N1097   1.353       .  A
C226        C689   1.487       .  S
N227        N228   1.322       .  A
N227       N1985   1.315   1_455  A
N227       Mn235   2.216       .  S
N228       C1990   1.358       .  A
N229        N230   1.319       .  A
N229       N1983   1.314       .  A
N229       Mn236   2.200       .  S
N230        C239   1.355       .  A
N231        N232   1.323       .  A
N231       N1981   1.316   1_455  A
N231       Mn235   2.222       .  S
N232       C1991   1.357   1_455  A
N233        N234   1.324       .  A
N233       N1979   1.316       .  A
N233       Mn236   2.218       .  S
N234        C238   1.357       .  A
Mn235     Cl1989   2.551       .  S
Mn236      Cl237   2.556       .  S
Cl237     Mn2841   2.552       .  S
Cl237     Mn1100   2.539       .  S
Cl237     Mn1987   2.542       .  S
C238       N1980   1.354       .  A
C238        C641   1.495       .  S
C239       N1984   1.355       .  A
C239        C510   1.496       .  S
N240        N241   1.321       .  A
N240       N1122   1.316       .  A
N240       Mn269   2.216       .  S
N241        C248   1.354       .  A
N242        N243   1.318       .  A
N242       N1120   1.313   1_545  A
N242       Mn258   2.203       .  S
N243       C1125   1.353   1_545  A
N244        N245   1.319       .  A
N244       N1118   1.315       .  A
N244       Mn269   2.199       .  S
N245        C249   1.354       .  A
N246        N247   1.318       .  A
N246       N1116   1.315   1_545  A
N246       Mn258   2.198       .  S
N247       C1124   1.353   1_545  A
C248       N1123   1.355       .  A
C248        C833   1.492       .  S
C249       N1119   1.353       .  A
C249        C430   1.486       .  S
N250        N251   1.321       .  A
N250       N2008   1.312       .  A
N250       Mn280   2.199       .  S
N251        C259   1.356       .  A
N252        N253   1.320       .  A
N252       N2006   1.317   1_455  A
N252       Mn258   2.205       .  S
N253       C2012   1.351       .  A
N254        N255   1.317       .  A
N254       N2004   1.318       .  A
N254       Mn280   2.194       .  S
N255        C260   1.349       .  A
N256        N257   1.318       .  A
N256       N2002   1.313   1_455  A
N256       Mn258   2.191       .  S
N257       C2011   1.352   1_455  A
Mn258     Cl2910   2.538   1_445  S
C259       N2009   1.351       .  A
C259        C398   1.492       .  S
C260       N2005   1.354       .  A
C260        C382   1.472       .  S
N261        N262   1.324       .  A
N261       N2019   1.314   1_455  A
N261       Mn269   2.215       .  S
N262       C2022   1.359       .  A
N263        N264   1.319       .  A
N263       N2017   1.318       .  A
N263       Mn281   2.208       .  S
N264        C271   1.354       .  A
N265        N266   1.319       .  A
N265       N2015   1.316   1_455  A
N265       Mn269   2.205       .  S
N266       C2023   1.353       .  A
N267        N268   1.320       .  A
N267       N2013   1.315       .  A
N267       Mn281   2.200       .  S
N268        C270   1.352       .  A
Mn269     Cl2034   2.546       .  S
C270       N2014   1.355       .  A
C270        C414   1.491       .  S
C271       N2018   1.352       .  A
C271        C366   1.482       .  S
N272        N273   1.323       .  A
N272       N1154   1.317   1_545  A
N272       Mn280   2.215       .  S
N273       C1159   1.353   1_545  A
N274        N275   1.321       .  A
N274       N1152   1.313       .  A
N274       Mn281   2.211       .  S
N275        C284   1.356       .  A
N276        N277   1.317       .  A
N276       N1150   1.312   1_545  A
N276       Mn280   2.182       .  S
N277       C1160   1.354   1_545  A
N278        N279   1.323       .  A
N278       N1148   1.315       .  A
N278       Mn281   2.218       .  S
N279        C283   1.355       .  A
Mn280     Cl1158   2.546   1_545  S
Mn281      Cl282   2.551       .  S
Cl282     Mn2886   2.553       .  S
Cl282     Mn2021   2.545       .  S
Cl282     Mn1156   2.539       .  S
C283       N1149   1.352       .  A
C283        C817   1.480       .  S
C284       N1153   1.349       .  A
C284        C446   1.478       .  S
N285        C290   1.353       .  A
N285        C289   1.354       .  A
N285        H317   1.042   1_655  S
N286        C293   1.353   1_655  A
N286        C294   1.352       .  A
N287        C292   1.353       .  A
N287        C291   1.350       .  A
N287        H318   1.042   1_655  S
N288        C295   1.351       .  A
N288        C296   1.353       .  A
C289        C297   1.388       .  A
C289        C305   1.420   1_655  A
C290        C306   1.418       .  A
C290        C298   1.387       .  A
C291        C299   1.389       .  A
C291        C308   1.417       .  A
C292        C307   1.415       .  A
C292        C300   1.386       .  A
C293        C305   1.417       .  A
C293        C301   1.387       .  A
C294        C308   1.417       .  A
C294        C302   1.387   1_655  A
C295        C303   1.387   1_655  A
C295        C306   1.415       .  A
C296        C304   1.386   1_655  A
C296        C307   1.415       .  A
C297        C298   1.375       .  A
C297        H309   1.082       .  S
C298        H310   1.082       .  S
C299        C300   1.375       .  A
C299        H311   1.082       .  S
C300        H312   1.082       .  S
C301        C302   1.371       .  A
C301        H313   1.082       .  S
C302        H314   1.082       .  S
C303        C304   1.374       .  A
C303        H315   1.082       .  S
C304        H316   1.082       .  S
C305        C417   1.495       .  S
C306       C2265   1.491       .  S
C307       C2249   1.493       .  S
C308        C401   1.484       .  S
N319        C324   1.349       .  A
N319        C323   1.350       .  A
N319        H351   1.039       .  S
N320        C327   1.350       .  A
N320        C328   1.349       .  A
N321        C326   1.353       .  A
N321        C325   1.353       .  A
N321        H352   1.039       .  S
N322        C329   1.349       .  A
N322        C330   1.349       .  A
C323        C331   1.386       .  A
C323        C339   1.409       .  A
C324        C340   1.411       .  A
C324        C332   1.388       .  A
C325        C333   1.387       .  A
C325        C342   1.416       .  A
C326        C341   1.415       .  A
C326        C334   1.386       .  A
C327        C339   1.410       .  A
C327        C335   1.385       .  A
C328        C342   1.411       .  A
C328        C336   1.387       .  A
C329        C337   1.386       .  A
C329        C340   1.410       .  A
C330        C338   1.387       .  A
C330        C341   1.411       .  A
C331        C332   1.377       .  A
C331        H343   1.082       .  S
C332        H344   1.083       .  S
C333        C334   1.378       .  A
C333        H345   1.082       .  S
C334        H346   1.082       .  S
C335        C336   1.370       .  A
C335        H347   1.082       .  S
C336        H348   1.082       .  S
C337        C338   1.372       .  A
C337        H349   1.082       .  S
C338        H350   1.083       .  S
C339        C481   1.483       .  S
C340        C449   1.480       .  S
C341        C433   1.487       .  S
C342        C465   1.486       .  S
C353        C354   1.529   1_655  S
C353        C357   1.550       .  S
C353       C2111   1.535       .  S
C353       C2137   1.548   1_655  S
C354        H361   1.087       .  S
C354        C355   1.362       .  D
C355        C356   1.548   1_455  S
C355        C529   1.493       .  S
C356        C358   1.541       .  S
C356       C2112   1.551       .  S
C356        H362   1.103       .  S
C357       H2115   1.084       .  S
C357        C358   1.372       .  D
C358       C2121   1.498       .  S
C359       C2105   1.532       .  S
C359        H364   1.084       .  S
C359        C360   1.367       .  D
C360       C2108   1.552       .  S
C360        C542   1.500       .  S
H363       C2109   1.083       .  S
C365        C366   1.402       .  A
C365        C370   1.408       .  A
C365        H372   1.083       .  S
C366       C2119   1.418       .  A
C367        C374   1.521       .  S
C367        C368   1.403       .  A
C367       C2118   1.416       .  A
C368       C2121   1.407   1_455  A
C368        H373   1.081       .  S
C369       C2110   1.496       .  S
C369        C370   1.422       .  A
C369       C2120   1.407       .  A
C370        C371   1.519       .  S
C371        F375   1.385       .  S
C371        F376   1.377       .  S
C371        F377   1.378       .  S
C374        F378   1.384       .  S
C374        F379   1.383       .  S
C374        F380   1.384       .  S
C381        C386   1.409       .  A
C381       C2134   1.397   1_655  A
C381        H388   1.085       .  S
C382        C383   1.410       .  A
C382       C2133   1.394       .  A
C383        C390   1.523       .  S
C383        C384   1.403       .  A
C384        C385   1.416       .  A
C384        H389   1.076       .  S
C385       C2105   1.546       .  S
C385       C2138   1.437       .  A
C386        C387   1.522       .  S
C386       C2137   1.433   1_655  A
C387        F391   1.383       .  S
C387        F392   1.385       .  S
C387       F2145   1.379       .  S
C390        F395   1.382       .  S
C390        F396   1.385       .  S
C390       F2146   1.384       .  S
F393       C2139   1.377       .  S
F394       C2142   1.382       .  S
C397        C398   1.410       .  A
C397        C402   1.406       .  A
C397        H404   1.082       .  S
C398       C2151   1.427       .  A
C399        C406   1.518       .  S
C399        C400   1.405       .  A
C399       C2150   1.427   1_455  A
C400        C401   1.396   1_455  A
C400        H405   1.083       .  S
C401       C2154   1.411       .  A
C402        C403   1.519       .  S
C402       C2153   1.411       .  A
C403        F407   1.384       .  S
C403        F408   1.383       .  S
C403        F409   1.383       .  S
C406        F410   1.383       .  S
C406        F411   1.383       .  S
C406        F412   1.385       .  S
C413        C418   1.409       .  A
C413       C2166   1.409       .  A
C413        H420   1.082       .  S
C414        C415   1.425       .  A
C414       C2165   1.408       .  A
C415        C422   1.520       .  S
C415        C416   1.407       .  A
C416       C2169   1.400       .  A
C416        H421   1.083       .  S
C417        C418   1.415       .  A
C417       C2168   1.398   1_455  A
C418        C419   1.519       .  S
C419        F423   1.385       .  S
C419        F424   1.381       .  S
C419        F425   1.383       .  S
C422        F426   1.384       .  S
C422        F427   1.378       .  S
C422        F428   1.385       .  S
C429        C430   1.407       .  A
C429        C434   1.406       .  A
C429        H436   1.083       .  S
C430        C431   1.423       .  A
C431        C438   1.519       .  S
C431        C432   1.405       .  A
C432        C433   1.401       .  A
C432        H437   1.083       .  S
C433        C434   1.413       .  A
C434        C435   1.518       .  S
C435        F441   1.383       .  S
C435       F1315   1.385       .  S
C435       F1316   1.381       .  S
C438        F443   1.383       .  S
C438        F444   1.385       .  S
C438       F1318   1.378       .  S
F439       C1311   1.384       .  S
F440       C1311   1.382       .  S
F442       C1314   1.378       .  S
C445        C450   1.400       .  A
C445       C1322   1.408   1_545  A
C445        H452   1.082       .  S
C446        C447   1.417       .  A
C446       C1321   1.407       .  A
C447        C454   1.515       .  S
C447        C448   1.402       .  A
C448        C449   1.400       .  A
C448        H453   1.084       .  S
C449       C1326   1.413       .  A
C450        C451   1.518       .  S
C450       C1325   1.409   1_545  A
C451        F455   1.385       .  S
C451        F456   1.382       .  S
C451        F457   1.383       .  S
C454        F458   1.384       .  S
C454        F459   1.378       .  S
C454        F460   1.385       .  S
C461        C462   1.412       .  A
C461        C466   1.409       .  A
C461       H1344   1.082       .  S
C462        C463   1.426       .  A
C463        C470   1.514       .  S
C463        C464   1.404       .  A
C464        C465   1.396       .  A
C464        H469   1.083       .  S
C465        C466   1.412       .  A
C466       C1343   1.519       .  S
C467       C1342   1.519       .  S
C467        F473   1.383       .  S
C467       F1347   1.384       .  S
C467       F1348   1.381       .  S
H468       C1337   1.082       .  S
C470        F474   1.370       .  S
C470        F476   1.385       .  S
C470       F1351   1.383       .  S
F471       C1343   1.384       .  S
F472       C1343   1.381       .  S
F475       C1346   1.383       .  S
C477        C482   1.400       .  A
C477       C1354   1.408   1_545  A
C477        H484   1.082       .  S
C478        C479   1.421       .  A
C478       C1353   1.407       .  A
C479        C486   1.519       .  S
C479        C480   1.408       .  A
C480        C481   1.401       .  A
C480        H485   1.083       .  S
C481       C1358   1.414       .  A
C482        C483   1.520       .  S
C482       C1357   1.411   1_545  A
C483        F487   1.385       .  S
C483        F489   1.382       .  S
C483       F1364   1.381       .  S
C486        F490   1.382       .  S
C486        F492   1.385       .  S
C486       F1367   1.383       .  S
F488       C1359   1.383       .  S
F491       C1362   1.383       .  S
C493        C494   1.410       .  A
C493        C498   1.408       .  A
C493        H500   1.082       .  S
C494       C2247   1.429       .  A
C495        C502   1.519       .  S
C495        C496   1.410       .  A
C495       C2246   1.426   1_455  A
C496       C2249   1.399   1_455  A
C496        H501   1.083       .  S
C497        C498   1.412       .  A
C497       C2248   1.396       .  A
C497       C2059   1.488       .  S
C498        C499   1.519       .  S
C499        F503   1.384       .  S
C499        F504   1.382       .  S
C499       F2257   1.382       .  S
C502        F507   1.383       .  S
C502        F508   1.384       .  S
C502       F2258   1.384       .  S
F505       C2251   1.382       .  S
F506       C2254   1.384       .  S
C509        C510   1.408       .  A
C509        C514   1.405       .  A
C509        H516   1.082       .  S
C510       C2263   1.425       .  A
C511        C518   1.507       .  S
C511        C512   1.404       .  A
C511       C2262   1.424   1_455  A
C512       C2265   1.395   1_455  A
C512        H517   1.084       .  S
C513        C514   1.413       .  A
C513       C2264   1.401       .  A
C513       C2058   1.492       .  S
C514        C515   1.518       .  S
C515        F519   1.385       .  S
C515        F520   1.382       .  S
C515        F521   1.382       .  S
C518        F522   1.382       .  S
C518        F523   1.384       .  S
C518        F524   1.386       .  S
C525        C526   1.402       .  A
C525        C530   1.411       .  A
C525        H532   1.083       .  S
C526        C527   1.421       .  A
C527        C534   1.519       .  S
C527        C528   1.410       .  A
C528        C529   1.402       .  A
C528        H533   1.084       .  S
C529        C530   1.419       .  A
C530        C531   1.513       .  S
C531        F535   1.381       .  S
C531        F536   1.382       .  S
C531        F537   1.385       .  S
C534        F538   1.382       .  S
C534        F539   1.384       .  S
C534        F540   1.384       .  S
C541        C542   1.407       .  A
C541        C546   1.413       .  A
C541        H548   1.083       .  S
C542        C543   1.431       .  A
C543        C550   1.524       .  S
C543        C544   1.405       .  A
C544        C545   1.395       .  A
C544        H549   1.085       .  S
C545        C546   1.416       .  A
C546        C547   1.518       .  S
C547        F551   1.384       .  S
C547        F552   1.383       .  S
C547        F553   1.383       .  S
C550        F554   1.386       .  S
C550        F555   1.380       .  S
C550        F556   1.382       .  S
C557        C558   1.410       .  A
C557        C562   1.406       .  A
C557        H564   1.082       .  S
C558        C559   1.424       .  A
C559        C566   1.515       .  S
C559        C560   1.407       .  A
C560        C561   1.399       .  A
C560        H565   1.083       .  S
C561        C562   1.412       .  A
C562        C563   1.518       .  S
C563        F567   1.385       .  S
C563        F568   1.382       .  S
C563        F569   1.382       .  S
C566        F570   1.383       .  S
C566        F571   1.383       .  S
C566        F572   1.385       .  S
C573        C574   1.397       .  A
C573        C578   1.407       .  A
C573        H580   1.083       .  S
C574        C575   1.412       .  A
C575        C582   1.518       .  S
C575        C576   1.405       .  A
C576        C577   1.408       .  A
C576        H581   1.082       .  S
C577        C578   1.423       .  A
C578        C579   1.517       .  S
C579        F583   1.382       .  S
C579        F584   1.383       .  S
C579        F585   1.384       .  S
C582        F586   1.382       .  S
C582        F587   1.383       .  S
C582        F588   1.384       .  S
C589        C590   1.409       .  A
C589        C594   1.404       .  A
C589        H596   1.082       .  S
C590        C591   1.425       .  A
C591        C598   1.519       .  S
C591        C592   1.409       .  A
C592        C593   1.400       .  A
C592        H597   1.083       .  S
C593        C594   1.412       .  A
C594        C595   1.519       .  S
C595        F599   1.385       .  S
C595        F600   1.382       .  S
C595        F601   1.382       .  S
C598        F602   1.382       .  S
C598        F603   1.383       .  S
C598        F604   1.385       .  S
C605        C606   1.411       .  A
C605        C610   1.407       .  A
C605        H612   1.082       .  S
C606        C607   1.429       .  A
C607        C614   1.520       .  S
C607        C608   1.406       .  A
C608        C609   1.397       .  A
C608        H613   1.083       .  S
C609        C610   1.411       .  A
C610        C611   1.520       .  S
C611        F615   1.384       .  S
C611        F616   1.382       .  S
C611        F617   1.383       .  S
C614        F618   1.382       .  S
C614        F619   1.383       .  S
C614        F620   1.385       .  S
C621        C622   1.418       .  A
C621        C626   1.408       .  A
C621        H628   1.074       .  S
C622       C1811   1.543       .  S
C622       C2375   1.432       .  A
C623        C630   1.526       .  S
C623        C624   1.411       .  A
C623       C2374   1.440       .  A
C624       C2377   1.398       .  A
C624        H629   1.083       .  S
C625        C626   1.412       .  A
C625       C2376   1.398       .  A
C626        C627   1.521       .  S
C627        F631   1.385       .  S
C627        F632   1.384       .  S
C627        F633   1.382       .  S
C630        F634   1.386       .  S
C630        F635   1.372       .  S
C630        F636   1.379       .  S
C637        C638   1.402       .  A
C637        C642   1.411       .  A
C637        H644   1.082       .  S
C638       C1816   1.491       .  S
C638       C2391   1.418       .  A
C639        C646   1.511       .  S
C639        C640   1.406       .  A
C639       C2390   1.414       .  A
C640       C2393   1.405       .  A
C640        H645   1.082       .  S
C641        C642   1.421       .  A
C641       C2392   1.407       .  A
C642        C643   1.516       .  S
C643        F647   1.385       .  S
C643        F648   1.382       .  S
C643        F649   1.383       .  S
C646        F650   1.378       .  S
C646        F651   1.382       .  S
C646        F652   1.384       .  S
C653        C654   1.409       .  A
C653        C658   1.401       .  A
C653        H660   1.075       .  S
C654        C655   1.419       .  A
C655        C662   1.509       .  S
C655        C656   1.411       .  A
C656        C657   1.401       .  A
C656        H661   1.083       .  S
C657        C658   1.406       .  A
C658        C659   1.518       .  S
C659        F663   1.385       .  S
C659        F664   1.382       .  S
C659        F665   1.383       .  S
C662        F666   1.383       .  S
C662        F667   1.380       .  S
C662        F668   1.385       .  S
C669        C670   1.404       .  A
C669        C674   1.411       .  A
C669        H676   1.083       .  S
C670        C671   1.421       .  A
C671        C678   1.519       .  S
C671        C672   1.405       .  A
C672        C673   1.398       .  A
C672        H677   1.085       .  S
C673        C674   1.416       .  A
C674        C675   1.518       .  S
C675        F679   1.384       .  S
C675        F680   1.383       .  S
C675        F681   1.383       .  S
C678        F682   1.383       .  S
C678        F683   1.381       .  S
C678        F684   1.384       .  S
C685        C686   1.404       .  A
C685        C690   1.411       .  A
C685        H692   1.077       .  S
C686       C1563   1.426       .  A
C687        C694   1.523       .  S
C687        C688   1.396       .  A
C687       C1562   1.420   1_545  A
C688       C1565   1.403   1_545  A
C688        H693   1.084       .  S
C689        C690   1.417       .  A
C689       C1564   1.402       .  A
C690        C691   1.517       .  S
C691        F697   1.382       .  S
C691       F1571   1.384       .  S
C691       F1572   1.383       .  S
C694        F698   1.379       .  S
C694       F1575   1.384       .  S
C694       F1576   1.383       .  S
F695       C1567   1.384       .  S
F696       C1567   1.382       .  S
F699       C1570   1.384       .  S
F700       C1570   1.383       .  S
C701        C702   1.398       .  A
C701        C706   1.410       .  A
C701        H708   1.083       .  S
C702       C1579   1.408       .  A
C703        C710   1.518   1_565  S
C703        C704   1.404   1_565  A
C703       C1578   1.408       .  A
C704       C1581   1.412   1_545  A
C704        H709   1.082       .  S
C705        C706   1.428       .  A
C705       C1580   1.411       .  A
C706        C707   1.518       .  S
C707        F711   1.377       .  S
C707        F712   1.373       .  S
C707       F1589   1.385       .  S
C710        F715   1.383       .  S
C710        F716   1.385       .  S
C710       F1590   1.383   1_545  S
F713       C1583   1.385       .  S
F714       C1586   1.383       .  S
C717        C718   1.400       .  A
C717        C722   1.408       .  A
C717        H724   1.085       .  S
C718        C719   1.407       .  A
C719        C726   1.520       .  S
C719        C720   1.403       .  A
C720        C721   1.416       .  A
C720        H725   1.076       .  S
C721        C722   1.435       .  A
C722        C723   1.527       .  S
C723        F727   1.383       .  S
C723        F728   1.385       .  S
C723        F729   1.378       .  S
C726        F730   1.383       .  S
C726        F731   1.382       .  S
C726        F732   1.385       .  S
C733        C734   1.404       .  A
C733        C738   1.412       .  A
C733        H740   1.077       .  S
C734        C735   1.425       .  A
C735        C742   1.520       .  S
C735        C736   1.407       .  A
C736        C737   1.403       .  A
C736        H741   1.083       .  S
C737        C738   1.419       .  A
C738        C739   1.519       .  S
C739        F743   1.384       .  S
C739        F744   1.383       .  S
C739        F745   1.382       .  S
C742        F746   1.379       .  S
C742        F747   1.381       .  S
C742        F748   1.385       .  S
C749        C750   1.396       .  A
C749        C754   1.407       .  A
C749        H756   1.083       .  S
C750        C751   1.411       .  A
C751        C758   1.519       .  S
C751        C752   1.411       .  A
C752        C753   1.412       .  A
C752        H757   1.082       .  S
C753        C754   1.429       .  A
C754        C755   1.520       .  S
C755        F759   1.385       .  S
C755        F760   1.383       .  S
C755        F761   1.377       .  S
C758        F762   1.382       .  S
C758        F763   1.383       .  S
C758        F764   1.380       .  S
C765        C766   1.403       .  A
C765        C770   1.408       .  A
C765        H772   1.083       .  S
C766        C767   1.413       .  A
C767        C774   1.521       .  S
C767        C768   1.399       .  A
C768        C769   1.405       .  A
C768        H773   1.082       .  S
C769        C770   1.421       .  A
C770        C771   1.519       .  S
C771        F775   1.386       .  S
C771        F776   1.381       .  S
C771        F777   1.384       .  S
C774        F778   1.381       .  S
C774        F779   1.383       .  S
C774        F780   1.385       .  S
C781        C782   1.399       .  A
C781        C786   1.405       .  A
C781        H788   1.083       .  S
C782        C783   1.413       .  A
C783        C790   1.520       .  S
C783        C784   1.406       .  A
C784        C785   1.407       .  A
C784        H789   1.081       .  S
C785        C786   1.424       .  A
C786        C787   1.520       .  S
C787        F791   1.385       .  S
C787        F792   1.381       .  S
C787        F793   1.384       .  S
C790        F794   1.381       .  S
C790        F795   1.383       .  S
C790        F796   1.384       .  S
C797        C798   1.405       .  A
C797        C802   1.412       .  A
C797        H804   1.083       .  S
C798        C799   1.417       .  A
C799        C806   1.521       .  S
C799        C800   1.401       .  A
C800        C801   1.407       .  A
C800        H805   1.082       .  S
C801        C802   1.422       .  A
C802        C803   1.519       .  S
C803        F807   1.384       .  S
C803        F808   1.384       .  S
C803        F809   1.383       .  S
C806        F810   1.383       .  S
C806        F811   1.382       .  S
C806        F812   1.385       .  S
C813        C814   1.403       .  A
C813        C818   1.409       .  A
C813        H820   1.083       .  S
C814       C1691   1.422       .  A
C815        C822   1.518       .  S
C815        C816   1.406       .  A
C815       C1690   1.422       .  A
C816       C1693   1.398       .  A
C816        H821   1.085       .  S
C817        C818   1.417       .  A
C817       C1692   1.400       .  A
C818        C819   1.517       .  S
C819        F823   1.385       .  S
C819        F824   1.383       .  S
C819        F825   1.382       .  S
C822        F826   1.383   1_565  S
C822        F827   1.381       .  S
C822        F828   1.384       .  S
C829        C834   1.412       .  A
C829       C1706   1.404   1_565  A
C829        H836   1.081       .  S
C830        C831   1.412       .  A
C830       C1705   1.402       .  A
C831        C838   1.519       .  S
C831        C832   1.405       .  A
C832        C833   1.409       .  A
C832        H837   1.084       .  S
C833       C1710   1.423       .  A
C834        C835   1.518       .  S
C834       C1709   1.421       .  A
C835        F839   1.385       .  S
C835        F840   1.383       .  S
C835       F1717   1.382       .  S
C838        F842   1.384       .  S
C838        F843   1.384       .  S
C838        F844   1.382       .  S
F841       C1711   1.381       .  S
C845        C846   1.403       .  A
C845        C850   1.410       .  A
C845        H852   1.084       .  S
C846        C847   1.424       .  A
C847        C854   1.524       .  S
C847        C848   1.409       .  A
C848        C849   1.412       .  A
C848        H853   1.076       .  S
C849        C850   1.435       .  A
C850        C851   1.526       .  S
C851        F855   1.385       .  S
C851        F856   1.383       .  S
C851        F857   1.376       .  S
C854        F858   1.384       .  S
C854        F859   1.383       .  S
C854        F860   1.385       .  S
C861        C862   1.401       .  A
C861        C866   1.409       .  A
C861        H868   1.083       .  S
C862        C863   1.416       .  A
C863        C870   1.516       .  S
C863        C864   1.401       .  A
C864        C865   1.404       .  A
C864        H869   1.084       .  S
C865        C866   1.425       .  A
C866        C867   1.520       .  S
C867        F871   1.386       .  S
C867        F872   1.382       .  S
C867        F873   1.384       .  S
C870        F874   1.377       .  S
C870        F875   1.383       .  S
C870        F876   1.382       .  S
C877        C878   1.550       .  S
C877        C883   1.534       .  S
C877        C881   1.546       .  S
C877       C1725   1.552       .  S
C878        H885   1.083       .  S
C879        C880   1.541   1_545  S
C879       C1690   1.491   1_545  S
C880        C884   1.542   1_565  S
C880        C882   1.541       .  S
C880        H886   1.111       .  S
C882       C1738   1.492       .  S
C883        H888   1.086       .  S
C884       C1706   1.488       .  S
N889        C894   1.348       .  A
N889        C893   1.351   1_554  A
N889        H921   1.036       .  S
N890       C2649   1.353       .  A
N890        C898   1.351   1_655  A
N891        C896   1.352   1_556  A
N891        C895   1.353       .  A
N891        H922   1.037       .  S
N892       C2651   1.354       .  A
N892        C900   1.353   1_655  A
C893        C901   1.384       .  A
C893        C909   1.410       .  A
C894        C910   1.416       .  A
C894        C902   1.391       .  A
C895        C903   1.382       .  A
C895        C912   1.414       .  A
C896        C911   1.426       .  A
C896        C904   1.392       .  A
C897       N2642   1.355       .  A
C897        C909   1.398       .  A
C897        C905   1.384       .  A
C898        C912   1.402       .  A
C898        C906   1.383       .  A
C899       N2644   1.351       .  A
C899        C907   1.386       .  A
C899        C910   1.417       .  A
C900        C908   1.388       .  A
C900        C911   1.424       .  A
C901        C902   1.379   1_556  A
C901        H913   1.082       .  S
C902        H914   1.082       .  S
C903        C904   1.385   1_556  A
C903        H915   1.082       .  S
C904        H916   1.082       .  S
C905       C2658   1.365       .  A
C905        H917   1.083       .  S
C906       C2657   1.365   1_455  A
C906        H918   1.083       .  S
C907       C2660   1.369       .  A
C907        H919   1.082       .  S
C908       C2659   1.371   1_455  A
C908        H920   1.082       .  S
C909       C1674   1.479       .  S
C910       C1642   1.482       .  S
C911       C1626   1.495       .  S
C912       C1658   1.495       .  S
C923        C924   1.555       .  S
C923        C929   1.521       .  S
C923        C927   1.533       .  S
C923       C1597   1.542       .  S
C924        H931   1.083       .  S
C925        C926   1.544   1_545  S
C925       C1581   1.502   1_545  S
C926        C930   1.547   1_565  S
C926        C928   1.539       .  S
C926        H932   1.103       .  S
C928       C1610   1.481       .  S
C929        H934   1.087       .  S
C930       C1562   1.485   1_545  S
C935       C2688   1.553   1_455  S
C935        C941   1.533       .  S
C935        C939   1.543       .  S
C935       C3250   1.553       .  S
C936       C2687   1.550       .  S
C936        H943   1.083       .  S
C936        C937   1.362       .  D
C937       C2690   1.535       .  S
C937       C1546   1.483       .  S
C938       C2689   1.535   1_455  S
C938        C942   1.542       .  S
C938        C940   1.537       .  S
C938        H944   1.111       .  S
C939        H945   1.084       .  S
C939        C940   1.369       .  D
C940       C3266   1.486       .  S
C941        H946   1.087       .  S
C941        C942   1.365       .  D
C942       C1530   1.489       .  S
N947        C952   1.354       .  A
N947        C951   1.356   1_554  A
N947        H979   1.037       .  S
N948        C956   1.353       .  A
N949        C954   1.353       .  A
N949        C953   1.354   1_554  A
N949        H980   1.037       .  S
N950        C958   1.350       .  A
C951        C959   1.387       .  A
C951        C967   1.420       .  A
C952        C968   1.418       .  A
C952        C960   1.387       .  A
C953        C961   1.387       .  A
C953        C970   1.417       .  A
C954        C969   1.417       .  A
C954        C962   1.387       .  A
C955        C967   1.415       .  A
C955        C963   1.386       .  A
C956        C970   1.415       .  A
C956        C964   1.386       .  A
C957        C965   1.386       .  A
C957        C968   1.415       .  A
C958        C966   1.387       .  A
C958        C969   1.413       .  A
C959        C960   1.378   1_556  A
C959        H971   1.082       .  S
C960        H972   1.082       .  S
C961        C962   1.377   1_556  A
C961        H973   1.082       .  S
C962        H974   1.082       .  S
C963        H975   1.082       .  S
C964        H976   1.082       .  S
C965        H977   1.082       .  S
C966        H978   1.082       .  S
C967       C1485   1.500       .  S
C968       C1450   1.491       .  S
C969       C1437   1.488       .  S
C970       C1469   1.493       .  S
N981        N982   1.322       .  A
N981        N987   1.316       .  A
N981      Mn1010   2.220       .  S
N982        C989   1.355       .  A
N983        N985   1.316       .  A
N983        N984   1.319       .  A
N983       Mn999   2.208       .  S
N984        C990   1.353       .  A
N985        N986   1.322       .  A
N985      Mn1010   2.213       .  S
N986        C990   1.357       .  A
N987        N988   1.324       .  A
N987       Mn999   2.219       .  S
N988        C989   1.358       .  A
C989       C1482   1.502       .  S
C990       C1613   1.496       .  S
N991        N997   1.317       .  A
N991        N992   1.321       .  A
N991      Mn1021   2.210       .  S
N992       C1000   1.352       .  A
N993        N994   1.324       .  A
N993        N995   1.314       .  A
N993       Mn999   2.211       .  S
N994       C1001   1.357       .  A
N995        N996   1.315       .  A
N995      Mn1021   2.189       .  S
N996       C1001   1.351       .  A
N997        N998   1.325       .  A
N997       Mn999   2.228       .  S
N998       C1000   1.357       .  A
Mn999     Cl1023   2.561       .  S
C1000      C1549   1.483       .  S
C1001      C1677   1.490       .  S
N1002      N1003   1.324       .  A
N1002      N1008   1.316       .  A
N1002     Mn1010   2.226       .  S
N1003      C1011   1.357       .  A
N1004      N1006   1.315       .  A
N1004      N1005   1.320       .  A
N1004     Mn1022   2.204       .  S
N1005      C1012   1.353       .  A
N1006      N1007   1.321       .  A
N1006     Mn1010   2.209       .  S
N1007      C1012   1.356       .  A
N1008      N1009   1.320       .  A
N1008     Mn1022   2.203       .  S
N1009      C1011   1.354       .  A
Mn1010    Cl1023   2.552       .  S
C1011      C1533   1.496       .  S
C1012      C1661   1.494       .  S
N1013      N1014   1.323       .  A
N1013      N1019   1.314       .  A
N1013     Mn1021   2.214       .  S
N1014      C1024   1.358       .  A
N1015      N1016   1.320       .  A
N1015      N1017   1.315       .  A
N1015     Mn1022   2.204       .  S
N1016      C1025   1.353       .  A
N1017      N1018   1.320       .  A
N1017     Mn1021   2.197       .  S
N1018      C1025   1.354       .  A
N1019      N1020   1.320       .  A
N1019     Mn1022   2.205       .  S
N1020      C1024   1.353       .  A
Mn1021    Cl1023   2.547       .  S
Mn1022    Cl1023   2.550       .  S
C1024      C1466   1.502       .  S
C1025      C1594   1.478       .  S
N1026      N1027   1.317       .  A
N1026      N1032   1.316       .  A
N1026     Mn1055   2.198       .  S
N1027      C1034   1.349       .  A
N1028      N1030   1.316       .  A
N1028      N1029   1.323       .  A
N1028     Mn1044   2.225       .  S
N1029      C1035   1.359       .  A
N1030      N1031   1.319       .  A
N1030     Mn1055   2.197       .  S
N1031      C1035   1.351       .  A
N1032      N1033   1.322       .  A
N1032     Mn1044   2.203       .  S
N1033      C1034   1.355       .  A
C1034      C1402   1.484       .  S
C1035      C1629   1.498       .  S
N1036      N1042   1.314       .  A
N1036      N1037   1.319       .  A
N1036     Mn1066   2.200       .  S
N1037      C1045   1.355       .  A
N1038      N1039   1.322       .  A
N1038      N1040   1.316       .  A
N1038     Mn1044   2.232       .  S
N1039      C1046   1.360       .  A
N1040      N1041   1.322       .  A
N1040     Mn1066   2.207       .  S
N1041      C1046   1.354       .  A
N1042      N1043   1.320       .  A
N1042     Mn1044   2.200       .  S
N1043      C1045   1.353       .  A
Mn1044    Cl1068   2.552       .  S
C1045      C1453   1.495       .  S
C1046      C1741   1.499       .  S
N1047      N1048   1.321       .  A
N1047      N1053   1.314       .  A
N1047     Mn1055   2.206       .  S
N1048      C1056   1.355       .  A
N1049      N1051   1.315       .  A
N1049      N1050   1.321       .  A
N1049     Mn1067   2.207       .  S
N1050      C1057   1.355       .  A
N1051      N1052   1.319       .  A
N1051     Mn1055   2.201       .  S
N1052      C1057   1.354       .  A
N1053      N1054   1.321       .  A
N1053     Mn1067   2.205       .  S
N1054      C1056   1.355       .  A
Mn1055    Cl1068   2.545       .  S
C1056      C1434   1.495       .  S
C1057      C1722   1.484       .  S
N1058      N1059   1.322       .  A
N1058      N1064   1.316       .  A
N1058     Mn1066   2.204       .  S
N1059      C1069   1.353       .  A
N1060      N1061   1.317       .  A
N1060      N1062   1.314       .  A
N1060     Mn1067   2.199       .  S
N1061      C1070   1.355       .  A
N1062      N1063   1.321       .  A
N1062     Mn1066   2.197       .  S
N1063      C1070   1.353       .  A
N1064      N1065   1.320       .  A
N1064     Mn1067   2.206       .  S
N1065      C1069   1.352       .  A
Mn1066    Cl1068   2.553       .  S
Mn1067    Cl1068   2.547       .  S
C1069      C1421   1.475       .  S
C1070      C1645   1.490       .  S
N1071      N1072   1.321       .  A
N1071      N2829   1.314       .  A
N1071     Mn1100   2.197       .  S
N1072      C1079   1.354       .  A
N1073      N2827   1.314   1_455  A
N1073      N1074   1.323       .  A
N1073     Mn1089   2.217       .  S
N1074      C2832   1.357   1_455  A
N1075      N2825   1.314       .  A
N1075      N1076   1.316       .  A
N1075     Mn1100   2.183       .  S
N1076      C1080   1.350       .  A
N1077      N2823   1.314   1_455  A
N1077      N1078   1.322       .  A
N1077     Mn1089   2.204       .  S
N1078      C2831   1.355       .  A
C1079      N2830   1.352       .  A
C1079      C1501   1.477       .  S
C1080      N2826   1.360       .  A
C1080      C1370   1.497       .  S
N1081      N1082   1.318       .  A
N1081     Mn1111   2.196       .  S
N1082      C1090   1.351       .  A
N1083      N1084   1.320       .  A
N1083     Mn1089   2.212       .  S
N1085      N1086   1.322       .  A
N1085     Mn1111   2.216       .  S
N1086      C1091   1.354       .  A
N1087      N1088   1.321       .  A
N1087     Mn1089   2.200       .  S
Mn1089    Cl1989   2.555       .  S
C1090      C1338   1.492       .  S
C1091      C1578   1.474       .  S
N1092      N1093   1.318       .  A
N1092     Mn1100   2.189       .  S
N1094      N1095   1.322       .  A
N1094     Mn1112   2.199       .  S
N1095      C1102   1.355       .  A
N1096      N1097   1.317       .  A
N1096     Mn1100   2.192       .  S
N1098      N1099   1.317       .  A
N1098     Mn1112   2.186       .  S
N1099      C1101   1.350       .  A
C1101      C1354   1.485       .  S
C1102      C1565   1.491       .  S
N1103      N1104   1.319       .  A
N1103      N2861   1.315   1_455  A
N1103     Mn1111   2.208       .  S
N1104      C2866   1.355   1_455  A
N1105      N1106   1.319       .  A
N1105      N2859   1.313       .  A
N1105     Mn1112   2.191       .  S
N1106      C1115   1.353       .  A
N1107      N2857   1.315   1_455  A
N1107      N1108   1.323       .  A
N1107     Mn1111   2.217       .  S
N1108      C2867   1.356   1_455  A
N1109      N2855   1.315       .  A
N1109      N1110   1.320       .  A
N1109     Mn1112   2.203       .  S
N1110      C1114   1.354       .  A
Mn1111    Cl2865   2.544   1_455  S
Mn1112    Cl1113   2.549       .  S
Cl1113    Mn1965   2.542   1_565  S
Cl1113    Mn2863   2.542       .  S
C1114      N2856   1.355       .  A
C1114      C1517   1.488       .  S
C1115      N2860   1.357       .  A
C1115      C1386   1.496       .  S
N1116      N1117   1.324       .  A
N1116     Mn1145   2.220       .  S
N1117      C1124   1.358       .  A
N1118      N1119   1.320       .  A
N1118     Mn1134   2.203       .  S
N1120      N1121   1.318       .  A
N1120     Mn1145   2.178       .  S
N1121      C1125   1.352       .  A
N1122      N1123   1.321       .  A
N1122     Mn1134   2.204       .  S
C1124      C1709   1.493       .  S
C1125      C1306   1.485       .  S
N1126      N2884   1.313       .  A
N1126      N1127   1.320       .  A
N1126     Mn1156   2.199       .  S
N1127      C1135   1.355       .  A
N1128      N1129   1.322       .  A
N1128      N2882   1.316   1_455  A
N1128     Mn1134   2.211       .  S
N1129      C2888   1.355   1_455  A
N1130      N2880   1.315       .  A
N1130      N1131   1.314       .  A
N1130     Mn1156   2.173       .  S
N1131      C1136   1.347       .  A
N1132      N2878   1.313   1_455  A
N1132      N1133   1.318       .  A
N1132     Mn1134   2.196       .  S
N1133      C2887   1.352   1_455  A
Mn1134    Cl2034   2.549       .  S
C1135      N2885   1.354       .  A
C1135      C1274   1.494       .  S
C1136      N2881   1.356       .  A
C1136      C1258   1.469       .  S
N1137      N1138   1.324       .  A
N1137      N2895   1.315   1_455  A
N1137     Mn1145   2.214       .  S
N1138      C2898   1.356   1_455  A
N1139      N2893   1.317       .  A
N1139      N1140   1.319       .  A
N1139     Mn1157   2.199       .  S
N1140      C1147   1.354       .  A
N1141      N2891   1.315   1_455  A
N1141      N1142   1.315       .  A
N1141     Mn1145   2.184       .  S
N1142      C2899   1.348       .  A
N1143      N2889   1.313       .  A
N1143      N1144   1.317       .  A
N1143     Mn1157   2.188       .  S
N1144      C1146   1.349       .  A
Mn1145    Cl2910   2.552   1_455  S
C1146      N2890   1.356       .  A
C1146      C1290   1.485       .  S
C1147      N2894   1.351       .  A
C1147      C1242   1.482       .  S
N1148      N1149   1.321       .  A
N1148     Mn1156   2.203       .  S
N1150      N1151   1.316       .  A
N1150     Mn1157   2.185       .  S
N1151      C1160   1.351       .  A
N1152      N1153   1.316       .  A
N1152     Mn1156   2.169       .  S
N1154      N1155   1.324       .  A
N1154     Mn1157   2.211       .  S
N1155      C1159   1.353       .  A
Mn1157    Cl1158   2.545       .  S
Cl1158    Mn2010   2.544   1_565  S
Cl1158    Mn2897   2.549       .  S
C1159      C1693   1.482       .  S
C1160      C1322   1.485       .  S
N1161      C1166   1.355       .  A
N1161      C1165   1.356       .  A
N1161      H1193   1.039   1_655  S
N1162      C1169   1.352   1_655  A
N1162      C1170   1.350       .  A
N1163      C1168   1.352       .  A
N1163      C1167   1.352       .  A
N1163      H1194   1.037   1_655  S
N1164      C1171   1.352       .  A
N1164      C1172   1.353       .  A
C1165      C1173   1.386       .  A
C1165      C1181   1.420       .  A
C1166      C1182   1.419       .  A
C1166      C1174   1.387       .  A
C1167      C1175   1.388       .  A
C1167      C1184   1.416       .  A
C1168      C1183   1.415       .  A
C1168      C1176   1.387       .  A
C1169      C1181   1.414   1_455  A
C1169      C1177   1.386       .  A
C1170      C1184   1.413       .  A
C1170      C1178   1.387   1_655  A
C1171      C1179   1.386   1_655  A
C1171      C1182   1.414       .  A
C1172      C1180   1.386   1_655  A
C1172      C1183   1.415       .  A
C1173      C1174   1.381       .  A
C1173      H1185   1.082       .  S
C1174      H1186   1.082       .  S
C1175      C1176   1.379       .  A
C1175      H1187   1.082       .  S
C1176      H1188   1.082       .  S
C1177      C1178   1.373       .  A
C1177      H1189   1.082       .  S
C1178      H1190   1.082       .  S
C1179      C1180   1.374       .  A
C1179      H1191   1.082       .  S
C1180      H1192   1.082       .  S
C1181      C1293   1.500       .  S
C1182      C3141   1.495       .  S
C1183      C3125   1.491       .  S
C1184      C1277   1.486       .  S
N1195      C1200   1.351       .  A
N1195      C1199   1.352       .  A
N1195      H1227   1.033       .  S
N1196      C1203   1.349       .  A
N1196      C1204   1.349       .  A
N1197      C1202   1.353       .  A
N1197      C1201   1.355       .  A
N1197      H1228   1.035       .  S
N1198      C1205   1.350       .  A
N1198      C1206   1.349       .  A
C1199      C1207   1.388       .  A
C1199      C1215   1.416       .  A
C1200      C1216   1.414       .  A
C1200      C1208   1.388       .  A
C1201      C1209   1.387       .  A
C1201      C1218   1.417       .  A
C1202      C1217   1.417       .  A
C1202      C1210   1.388       .  A
C1203      C1215   1.414       .  A
C1203      C1211   1.387       .  A
C1204      C1218   1.414       .  A
C1204      C1212   1.387       .  A
C1205      C1213   1.387       .  A
C1205      C1216   1.414       .  A
C1206      C1214   1.388       .  A
C1206      C1217   1.415       .  A
C1207      C1208   1.371       .  A
C1207      H1219   1.082       .  S
C1208      H1220   1.082       .  S
C1209      C1210   1.372       .  A
C1209      H1221   1.082       .  S
C1210      H1222   1.082       .  S
C1211      C1212   1.366       .  A
C1211      H1223   1.082       .  S
C1212      H1224   1.082       .  S
C1213      C1214   1.368       .  A
C1213      H1225   1.082       .  S
C1214      H1226   1.082       .  S
C1215      C1357   1.482       .  S
C1216      C1325   1.479       .  S
C1217      C1309   1.483       .  S
C1218      C1341   1.486       .  S
C1229      C1230   1.532   1_655  S
C1229      C2987   1.524       .  S
C1229      C1233   1.551       .  S
C1229      C3013   1.538       .  S
C1230      H1237   1.085       .  S
C1230      C1231   1.367       .  D
C1231      C1232   1.546   1_455  S
C1231      C1405   1.487       .  S
C1232      C2988   1.544       .  S
C1232      C1234   1.535       .  S
C1232      H1238   1.102       .  S
C1233      H2991   1.084       .  S
C1233      C1234   1.370       .  D
C1234      C2997   1.491       .  S
C1235      C2981   1.528       .  S
C1235      H1240   1.086       .  S
C1235      C1236   1.363       .  D
C1236      C2984   1.548       .  S
C1236      C1418   1.492       .  S
H1239      C2985   1.085       .  S
C1241      C1242   1.403       .  A
C1241      C1246   1.408       .  A
C1241      H1248   1.083       .  S
C1242      C2995   1.420       .  A
C1243      C1250   1.522       .  S
C1243      C2994   1.419       .  A
C1243      C1244   1.400       .  A
C1244      C2997   1.405   1_455  A
C1244      H1249   1.082       .  S
C1245      C2986   1.493       .  S
C1245      C2996   1.404       .  A
C1245      C1246   1.422       .  A
C1246      C1247   1.518       .  S
C1247      F1251   1.385       .  S
C1247      F1252   1.376       .  S
C1247      F1253   1.380       .  S
C1250      F1254   1.384       .  S
C1250      F1255   1.383       .  S
C1250      F1256   1.385       .  S
C1257      C3010   1.397   1_455  A
C1257      C1262   1.408       .  A
C1257      H1264   1.085       .  S
C1258      C3009   1.394       .  A
C1258      C1259   1.414       .  A
C1259      C1266   1.523       .  S
C1259      C1260   1.402       .  A
C1260      C1261   1.412       .  A
C1260      H1265   1.079       .  S
C1261      C2981   1.537       .  S
C1261      C3014   1.434       .  A
C1262      C1263   1.524       .  S
C1262      C3013   1.433   1_455  A
C1263      F1267   1.385       .  S
C1263      F1268   1.382       .  S
C1263      F3021   1.377       .  S
C1266      F3022   1.384       .  S
C1266      F1271   1.383       .  S
C1266      F1272   1.384       .  S
F1269      C3015   1.380       .  S
F1270      C3018   1.383       .  S
C1273      C1274   1.409       .  A
C1273      C1278   1.405       .  A
C1273      H1280   1.082       .  S
C1274      C3027   1.425       .  A
C1275      C1282   1.517       .  S
C1275      C3026   1.424   1_455  A
C1275      C1276   1.405       .  A
C1276      C1277   1.398   1_455  A
C1276      H1281   1.083       .  S
C1277      C3030   1.414       .  A
C1278      C1279   1.517       .  S
C1278      C3029   1.411       .  A
C1279      F1283   1.385       .  S
C1279      F1284   1.382       .  S
C1279      F1285   1.383       .  S
C1282      F1286   1.382       .  S
C1282      F1287   1.384       .  S
C1282      F1288   1.385       .  S
C1289      C3042   1.407   1_455  A
C1289      C1294   1.413       .  A
C1289      H1296   1.083       .  S
C1290      C3041   1.407       .  A
C1290      C1291   1.424       .  A
C1291      C1298   1.521       .  S
C1291      C1292   1.403       .  A
C1292      C3045   1.399       .  A
C1292      H1297   1.083       .  S
C1293      C3044   1.404       .  A
C1293      C1294   1.417   1_655  A
C1294      C1295   1.518       .  S
C1295      F1299   1.383       .  S
C1295      F1300   1.383       .  S
C1295      F1301   1.380       .  S
C1298      F1302   1.384       .  S
C1298      F1303   1.379       .  S
C1298      F1304   1.385       .  S
C1305      C1306   1.410       .  A
C1305      C1310   1.406       .  A
C1305      H1312   1.083       .  S
C1306      C1307   1.422   1_565  A
C1307      C1314   1.519       .  S
C1307      C1308   1.401       .  A
C1308      C1309   1.398   1_545  A
C1308      H1313   1.083       .  S
C1309      C1310   1.411       .  A
C1310      C1311   1.518       .  S
C1311      F1317   1.383       .  S
C1314      F1319   1.384       .  S
C1314      F1320   1.385       .  S
C1321      C1326   1.403       .  A
C1321      H1328   1.083       .  S
C1322      C1323   1.426       .  A
C1323      C1330   1.519       .  S
C1323      C1324   1.402       .  A
C1324      C1325   1.397       .  A
C1324      H1329   1.083       .  S
C1326      C1327   1.519       .  S
C1327      F1331   1.385       .  S
C1327      F1332   1.383       .  S
C1327      F1333   1.381       .  S
C1330      F1334   1.383       .  S
C1330      F1335   1.383       .  S
C1330      F1336   1.385       .  S
C1337      C1338   1.409   1_545  A
C1337      C1342   1.408       .  A
C1338      C1339   1.426       .  A
C1339      C1346   1.519       .  S
C1339      C1340   1.402       .  A
C1340      C1341   1.396       .  A
C1340      H1345   1.084       .  S
C1341      C1342   1.414   1_565  A
C1343      F1349   1.383       .  S
C1346      F1350   1.375       .  S
C1346      F1352   1.386       .  S
C1353      C1358   1.401       .  A
C1353      H1360   1.084       .  S
C1354      C1355   1.426       .  A
C1355      C1362   1.522       .  S
C1355      C1356   1.405       .  A
C1356      C1357   1.400       .  A
C1356      H1361   1.083       .  S
C1358      C1359   1.520       .  S
C1359      F1363   1.383       .  S
C1359      F1365   1.384       .  S
C1362      F1366   1.383       .  S
C1362      F1368   1.385       .  S
C1369      C1370   1.413       .  A
C1369      C1374   1.405       .  A
C1369      H1376   1.082       .  S
C1370      C3123   1.424       .  A
C1371      C1378   1.519       .  S
C1371      C3122   1.425   1_455  A
C1371      C1372   1.411       .  A
C1372      C3125   1.401   1_455  A
C1372      H1377   1.083       .  S
C1373      C3124   1.400       .  A
C1373      C1374   1.410       .  A
C1373      C2935   1.484       .  S
C1374      C1375   1.521       .  S
C1375      F1379   1.384       .  S
C1375      F1380   1.382       .  S
C1375      F3133   1.382       .  S
C1378      F3134   1.383       .  S
C1378      F1383   1.383       .  S
C1378      F1384   1.385       .  S
F1381      C3127   1.382       .  S
F1382      C3130   1.383       .  S
C1385      C1386   1.410       .  A
C1385      C1390   1.407       .  A
C1385      H1392   1.082       .  S
C1386      C3139   1.424       .  A
C1387      C1394   1.514       .  S
C1387      C3138   1.428   1_455  A
C1387      C1388   1.410       .  A
C1388      C3141   1.398   1_455  A
C1388      H1393   1.083       .  S
C1389      C3140   1.396       .  A
C1389      C1390   1.411       .  A
C1389      C2934   1.484       .  S
C1390      C1391   1.517       .  S
C1391      F1395   1.385       .  S
C1391      F1396   1.382       .  S
C1391      F1397   1.383       .  S
C1394      F1398   1.382       .  S
C1394      F1399   1.383       .  S
C1394      F1400   1.386       .  S
C1401      C1402   1.402       .  A
C1401      C1406   1.408       .  A
C1401      H1408   1.083       .  S
C1402      C1403   1.422       .  A
C1403      C1410   1.520       .  S
C1403      C1404   1.404       .  A
C1404      C1405   1.400       .  A
C1404      H1409   1.083       .  S
C1405      C1406   1.419       .  A
C1406      C1407   1.514       .  S
C1407      F1411   1.378       .  S
C1407      F1412   1.381       .  S
C1407      F1413   1.385       .  S
C1410      F1414   1.382       .  S
C1410      F1415   1.384       .  S
C1410      F1416   1.385       .  S
C1417      C1418   1.404       .  A
C1417      C1422   1.410       .  A
C1417      H1424   1.083       .  S
C1418      C1419   1.430       .  A
C1419      C1426   1.524       .  S
C1419      C1420   1.402       .  A
C1420      C1421   1.395       .  A
C1420      H1425   1.085       .  S
C1421      C1422   1.416       .  A
C1422      C1423   1.517       .  S
C1423      F1427   1.384       .  S
C1423      F1428   1.383       .  S
C1423      F1429   1.383       .  S
C1426      F1430   1.385       .  S
C1426      F1431   1.379       .  S
C1426      F1432   1.383       .  S
C1433      C1434   1.408       .  A
C1433      C1438   1.408       .  A
C1433      H1440   1.082       .  S
C1434      C1435   1.424       .  A
C1435      C1442   1.513       .  S
C1435      C1436   1.406       .  A
C1436      C1437   1.397       .  A
C1436      H1441   1.083       .  S
C1437      C1438   1.413       .  A
C1438      C1439   1.518       .  S
C1439      F1443   1.384       .  S
C1439      F1444   1.383       .  S
C1439      F1445   1.382       .  S
C1442      F1446   1.384       .  S
C1442      F1447   1.380       .  S
C1442      F1448   1.386       .  S
C1449      C1450   1.401       .  A
C1449      C1454   1.410       .  A
C1449      H1456   1.083       .  S
C1450      C1451   1.413       .  A
C1451      C1458   1.519       .  S
C1451      C1452   1.405       .  A
C1452      C1453   1.409       .  A
C1452      H1457   1.082       .  S
C1453      C1454   1.426       .  A
C1454      C1455   1.520       .  S
C1455      F1459   1.385       .  S
C1455      F1460   1.383       .  S
C1455      F1461   1.383       .  S
C1458      F1462   1.382       .  S
C1458      F1463   1.382       .  S
C1458      F1464   1.385       .  S
C1465      C1466   1.411       .  A
C1465      C1470   1.409       .  A
C1465      H1472   1.082       .  S
C1466      C1467   1.429       .  A
C1467      C1474   1.520       .  S
C1467      C1468   1.410       .  A
C1468      C1469   1.399       .  A
C1468      H1473   1.083       .  S
C1469      C1470   1.412       .  A
C1470      C1471   1.519       .  S
C1471      F1475   1.384       .  S
C1471      F1476   1.382       .  S
C1471      F1477   1.382       .  S
C1474      F1478   1.383       .  S
C1474      F1479   1.383       .  S
C1474      F1480   1.385       .  S
C1481      C1482   1.409       .  A
C1481      C1486   1.410       .  A
C1481      H1488   1.082       .  S
C1482      C1483   1.427       .  A
C1483      C1490   1.520       .  S
C1483      C1484   1.414       .  A
C1484      C1485   1.402       .  A
C1484      H1489   1.083       .  S
C1485      C1486   1.416       .  A
C1486      C1487   1.520       .  S
C1487      F1491   1.384       .  S
C1487      F1492   1.383       .  S
C1487      F1493   1.381       .  S
C1490      F1494   1.384       .  S
C1490      F1495   1.382       .  S
C1490      F1496   1.385       .  S
C1497      C1498   1.418       .  A
C1497      C1502   1.406       .  A
C1497      H1504   1.076       .  S
C1498      C2687   1.544       .  S
C1498      C3251   1.432       .  A
C1499      C1506   1.526       .  S
C1499      C3250   1.437       .  A
C1499      C1500   1.410       .  A
C1500      C3253   1.400       .  A
C1500      H1505   1.084       .  S
C1501      C3252   1.398       .  A
C1501      C1502   1.409       .  A
C1502      C1503   1.520       .  S
C1503      F1507   1.385       .  S
C1503      F1508   1.383       .  S
C1503      F1509   1.382       .  S
C1506      F1510   1.385       .  S
C1506      F1511   1.374       .  S
C1506      F1512   1.382       .  S
C1513      C1514   1.402       .  A
C1513      C1518   1.409       .  A
C1513      H1520   1.083       .  S
C1514      C2692   1.486       .  S
C1514      C3267   1.416       .  A
C1515      C1522   1.516       .  S
C1515      C3266   1.414       .  A
C1515      C1516   1.402       .  A
C1516      C3269   1.406   1_455  A
C1516      H1521   1.084       .  S
C1517      C3268   1.405       .  A
C1517      C1518   1.421       .  A
C1518      C1519   1.517       .  S
C1519      F1523   1.384       .  S
C1519      F1524   1.383       .  S
C1519      F1525   1.384       .  S
C1522      F1526   1.378       .  S
C1522      F1527   1.384       .  S
C1522      F1528   1.382       .  S
C1529      C1530   1.403       .  A
C1529      C1534   1.411       .  A
C1529      H1536   1.081       .  S
C1530      C1531   1.419       .  A
C1531      C1538   1.521       .  S
C1531      C1532   1.407       .  A
C1532      C1533   1.408       .  A
C1532      H1537   1.084       .  S
C1533      C1534   1.421       .  A
C1534      C1535   1.518       .  S
C1535      F1539   1.385       .  S
C1535      F1540   1.383       .  S
C1535      F1541   1.382       .  S
C1538      F1542   1.382       .  S
C1538      F1543   1.383       .  S
C1538      F1544   1.383       .  S
C1545      C1546   1.401       .  A
C1545      C1550   1.408       .  A
C1545      H1552   1.083       .  S
C1546      C1547   1.420       .  A
C1547      C1554   1.521       .  S
C1547      C1548   1.410       .  A
C1548      C1549   1.403       .  A
C1548      H1553   1.084       .  S
C1549      C1550   1.418       .  A
C1550      C1551   1.518       .  S
C1551      F1555   1.385       .  S
C1551      F1556   1.382       .  S
C1551      F1557   1.382       .  S
C1554      F1558   1.383       .  S
C1554      F1559   1.381       .  S
C1554      F1560   1.383       .  S
C1561      C1562   1.405       .  A
C1561      C1566   1.414       .  A
C1561      H1568   1.082       .  S
C1563      C1570   1.525       .  S
C1563      C1564   1.401       .  A
C1564      H1569   1.085       .  S
C1565      C1566   1.422       .  A
C1566      C1567   1.517       .  S
C1567      F1573   1.383       .  S
C1570      F1574   1.379       .  S
C1577      C1578   1.400       .  A
C1577      C1582   1.411       .  A
C1577      H1584   1.083       .  S
C1579      C1586   1.517       .  S
C1579      C1580   1.406       .  A
C1580      H1585   1.081       .  S
C1581      C1582   1.424       .  A
C1582      C1583   1.518       .  S
C1583      F1587   1.379       .  S
C1583      F1588   1.377   1_565  S
C1586      F1591   1.383       .  S
C1586      F1592   1.385       .  S
C1593      C1594   1.397       .  A
C1593      C1598   1.405       .  A
C1593      H1600   1.085       .  S
C1594      C1595   1.409       .  A
C1595      C1602   1.520       .  S
C1595      C1596   1.407       .  A
C1596      C1597   1.415       .  A
C1596      H1601   1.076       .  S
C1597      C1598   1.437       .  A
C1598      C1599   1.528       .  S
C1599      F1603   1.383       .  S
C1599      F1604   1.385       .  S
C1599      F1605   1.377       .  S
C1602      F1606   1.384       .  S
C1602      F1607   1.382       .  S
C1602      F1608   1.385       .  S
C1609      C1610   1.397       .  A
C1609      C1614   1.409       .  A
C1609      H1616   1.083       .  S
C1610      C1611   1.412       .  A
C1611      C1618   1.516       .  S
C1611      C1612   1.407       .  A
C1612      C1613   1.409       .  A
C1612      H1617   1.082       .  S
C1613      C1614   1.426       .  A
C1614      C1615   1.519       .  S
C1615      F1619   1.385       .  S
C1615      F1620   1.384       .  S
C1615      F1621   1.383       .  S
C1618      F1622   1.382       .  S
C1618      F1623   1.382       .  S
C1618      F1624   1.384       .  S
C1625      C1626   1.400       .  A
C1625      C1630   1.408       .  A
C1625      H1632   1.083       .  S
C1626      C1627   1.413       .  A
C1627      C1634   1.516       .  S
C1627      C1628   1.409       .  A
C1628      C1629   1.408       .  A
C1628      H1633   1.082       .  S
C1629      C1630   1.427       .  A
C1630      C1631   1.519       .  S
C1631      F1635   1.385       .  S
C1631      F1636   1.384       .  S
C1631      F1637   1.375       .  S
C1634      F1638   1.383       .  S
C1634      F1639   1.381       .  S
C1634      F1640   1.384       .  S
C1641      C1642   1.399       .  A
C1641      C1646   1.408       .  A
C1641      H1648   1.083       .  S
C1642      C1643   1.410       .  A
C1643      C1650   1.521       .  S
C1643      C1644   1.400       .  A
C1644      C1645   1.408       .  A
C1644      H1649   1.082       .  S
C1645      C1646   1.427       .  A
C1646      C1647   1.520       .  S
C1647      F1651   1.385       .  S
C1647      F1652   1.382       .  S
C1647      F1653   1.383       .  S
C1650      F1654   1.382       .  S
C1650      F1655   1.383       .  S
C1650      F1656   1.385       .  S
C1657      C1658   1.405       .  A
C1657      C1662   1.407       .  A
C1657      H1664   1.083       .  S
C1658      C1659   1.417       .  A
C1659      C1666   1.518       .  S
C1659      C1660   1.408       .  A
C1660      C1661   1.408       .  A
C1660      H1665   1.083       .  S
C1661      C1662   1.424       .  A
C1662      C1663   1.521       .  S
C1663      F1667   1.385       .  S
C1663      F1668   1.380       .  S
C1663      F1669   1.384       .  S
C1666      F1670   1.381       .  S
C1666      F1671   1.384       .  S
C1666      F1672   1.385       .  S
C1673      C1674   1.401       .  A
C1673      C1678   1.411       .  A
C1673      H1680   1.083       .  S
C1674      C1675   1.413       .  A
C1675      C1682   1.521       .  S
C1675      C1676   1.401       .  A
C1676      C1677   1.407       .  A
C1676      H1681   1.082       .  S
C1677      C1678   1.423       .  A
C1678      C1679   1.518       .  S
C1679      F1683   1.385       .  S
C1679      F1684   1.383       .  S
C1679      F1685   1.383       .  S
C1682      F1686   1.382       .  S
C1682      F1687   1.381       .  S
C1682      F1688   1.385       .  S
C1689      C1690   1.405       .  A
C1689      C1694   1.413       .  A
C1689      H1696   1.083       .  S
C1691      C1698   1.520       .  S
C1691      C1692   1.407       .  A
C1692      H1697   1.085       .  S
C1693      C1694   1.418       .  A
C1694      C1695   1.517       .  S
C1695      F1699   1.385       .  S
C1695      F1700   1.383   1_565  S
C1695      F1701   1.383       .  S
C1698      F1702   1.383       .  S
C1698      F1703   1.381       .  S
C1698      F1704   1.384       .  S
C1705      C1710   1.410       .  A
C1705      H1712   1.081       .  S
C1706      C1707   1.417       .  A
C1707      C1714   1.519       .  S
C1707      C1708   1.403       .  A
C1708      C1709   1.407   1_545  A
C1708      H1713   1.084       .  S
C1710      C1711   1.520       .  S
C1711      F1715   1.383       .  S
C1711      F1716   1.383       .  S
C1714      F1718   1.382       .  S
C1714      F1719   1.384       .  S
C1714      F1720   1.383       .  S
C1721      C1722   1.399       .  A
C1721      C1726   1.408       .  A
C1721      H1728   1.084       .  S
C1722      C1723   1.411       .  A
C1723      C1730   1.522       .  S
C1723      C1724   1.409       .  A
C1724      C1725   1.419       .  A
C1724      H1729   1.077       .  S
C1725      C1726   1.436       .  A
C1726      C1727   1.526       .  S
C1727      F1731   1.381       .  S
C1727      F1732   1.386       .  S
C1727      F1733   1.377       .  S
C1730      F1734   1.384       .  S
C1730      F1735   1.382       .  S
C1730      F1736   1.384       .  S
C1737      C1738   1.403       .  A
C1737      C1742   1.413       .  A
C1737      H1744   1.083       .  S
C1738      C1739   1.418       .  A
C1739      C1746   1.519       .  S
C1739      C1740   1.407       .  A
C1740      C1741   1.406       .  A
C1740      H1745   1.082       .  S
C1741      C1742   1.425       .  A
C1742      C1743   1.520       .  S
C1743      F1747   1.386       .  S
C1743      F1748   1.382       .  S
C1743      F1749   1.383       .  S
C1746      F1750   1.381       .  S
C1746      F1751   1.385       .  S
C1746      F1752   1.380       .  S
C1753      C1754   1.554       .  S
C1753      C1759   1.537       .  S
C1753      C1757   1.544       .  S
C1753      C2601   1.556       .  S
C1754      H1761   1.081       .  S
C1754      C2631   1.366       .  D
C1755      C1756   1.538       .  S
C1755      C2630   1.367       .  D
C1755      C2566   1.489       .  S
C1756      C1760   1.539       .  S
C1756      C1758   1.538       .  S
C1756      H1762   1.111       .  S
C1757      H2639   1.085       .  S
C1757      C2634   1.370   1_545  D
C1758      C2633   1.368       .  D
C1758      C2614   1.488       .  S
C1759      H1764   1.086       .  S
C1759      C2636   1.366       .  D
C1760      C2635   1.366       .  D
C1760      C2582   1.488       .  S
H1763      C2633   1.080       .  S
N1765      C1770   1.350       .  A
N1765      C1769   1.351   1_554  A
N1765      H1797   1.036       .  S
N1766      C1774   1.354       .  A
N1767      C1772   1.344       .  A
N1767      C1771   1.344   1_554  A
N1767      H1798   1.038   1_554  S
N1768      C1776   1.354       .  A
C1769      C1777   1.387       .  A
C1769      C1785   1.413       .  A
C1770      C1786   1.413       .  A
C1770      C1778   1.388       .  A
C1771      C1779   1.382       .  A
C1771      C1788   1.405       .  A
C1772      C1787   1.416       .  A
C1772      C1780   1.394       .  A
C1773      C1785   1.413       .  A
C1773      C1781   1.387       .  A
C1774      C1788   1.406       .  A
C1774      C1782   1.384       .  A
C1775      C1783   1.387       .  A
C1775      C1786   1.410       .  A
C1776      C1784   1.386       .  A
C1776      C1787   1.422       .  A
C1777      C1778   1.376   1_556  A
C1777      H1789   1.082       .  S
C1778      H1790   1.082       .  S
C1779      C1780   1.385   1_556  A
C1779      H1791   1.082       .  S
C1780      H1792   1.082       .  S
C1781      H1793   1.082       .  S
C1782      H1794   1.083       .  S
C1783      H1795   1.082       .  S
C1784      H1796   1.082       .  S
C1785      C2550   1.482       .  S
C1786      C2518   1.479       .  S
C1787      C2502   1.485       .  S
C1788      C2534   1.488       .  S
C1799      C1800   1.554       .  S
C1799      C1805   1.528       .  S
C1799      C1803   1.532       .  S
C1799      C2473   1.543       .  S
C1800      H1807   1.078       .  S
C1800      C2677   1.369       .  D
C1801      C1802   1.551       .  S
C1801      C2676   1.376       .  D
C1801      C2457   1.517       .  S
C1802      C1806   1.556       .  S
C1802      C1804   1.544       .  S
C1802      H1808   1.100       .  S
C1803      H2685   1.087       .  S
C1803      C2680   1.362   1_545  D
C1804      C2679   1.359       .  D
C1804      C2486   1.483       .  S
C1805      H1810   1.087       .  S
C1805      C2682   1.362       .  D
C1806      C2681   1.360       .  D
C1806      C2438   1.493       .  S
H1809      C2679   1.077       .  S
C1811      C1817   1.528       .  S
C1811      C1815   1.543       .  S
C1812      H1819   1.081       .  S
C1812      C1813   1.368       .  D
C1813      C2422   1.505       .  S
C1814      C1818   1.541       .  S
C1814      C1816   1.544       .  S
C1814      H1820   1.111       .  S
C1815      H1821   1.085       .  S
C1815      C1816   1.368       .  D
C1817      H1822   1.085       .  S
C1817      C1818   1.363       .  D
C1818      C2406   1.485       .  S
N1823      C1828   1.354       .  A
N1823      C1827   1.352   1_554  A
N1823      H1855   1.036       .  S
N1824      C2707   1.349   1_545  A
N1824      C1832   1.350       .  A
N1825      C1830   1.352       .  A
N1825      C1829   1.354   1_554  A
N1825      H1856   1.037       .  S
N1826      C2709   1.352   1_545  A
N1826      C1834   1.351       .  A
C1827      C1835   1.387       .  A
C1827      C1843   1.415       .  A
C1828      C1844   1.415       .  A
C1828      C1836   1.387       .  A
C1829      C1837   1.387       .  A
C1829      C1846   1.415       .  A
C1830      C1845   1.416       .  A
C1830      C1838   1.388       .  A
C1831      N2700   1.352       .  A
C1831      C1843   1.416       .  A
C1831      C1839   1.387       .  A
C1832      C1846   1.412       .  A
C1832      C1840   1.387       .  A
C1833      N2702   1.352       .  A
C1833      C1841   1.385       .  A
C1833      C1844   1.413       .  A
C1834      C1842   1.387       .  A
C1834      C1845   1.414       .  A
C1835      C1836   1.376   1_556  A
C1835      H1847   1.082       .  S
C1836      H1848   1.082       .  S
C1837      C1838   1.377   1_556  A
C1837      H1849   1.082       .  S
C1838      H1850   1.082       .  S
C1839      C2716   1.372       .  A
C1839      H1851   1.082       .  S
C1840      C2715   1.374   1_545  A
C1840      H1852   1.082       .  S
C1841      C2718   1.371       .  A
C1841      H1853   1.082       .  S
C1842      C2717   1.376   1_545  A
C1842      H1854   1.082       .  S
C1843      C2361   1.488       .  S
C1844      C2326   1.491       .  S
C1845      C2313   1.488       .  S
C1846      C2345   1.488       .  S
N1857      N1858   1.321       .  A
N1857      N1863   1.315       .  A
N1857     Mn1886   2.218       .  S
N1858      C1865   1.356       .  A
N1859      N1861   1.314       .  A
N1859      N1860   1.317       .  A
N1859     Mn1875   2.185       .  S
N1860      C1866   1.350       .  A
N1861      N1862   1.320       .  A
N1861     Mn1886   2.210       .  S
N1862      C1866   1.357       .  A
N1863      N1864   1.320       .  A
N1863     Mn1875   2.198       .  S
N1864      C1865   1.354       .  A
C1865      C2358   1.496       .  S
C1866      C2489   1.484       .  S
N1867      N1873   1.315       .  A
N1867      N1868   1.322       .  A
N1867     Mn1897   2.215       .  S
N1868      C1876   1.356       .  A
N1869      N1870   1.317       .  A
N1869      N1871   1.312       .  A
N1869     Mn1875   2.190       .  S
N1870      C1877   1.351       .  A
N1871      N1872   1.320       .  A
N1871     Mn1897   2.191       .  S
N1872      C1877   1.355       .  A
N1873      N1874   1.320       .  A
N1873     Mn1875   2.202       .  S
N1874      C1876   1.353       .  A
Mn1875    Cl1899   2.539       .  S
C1876      C2425   1.481       .  S
C1877      C2553   1.488       .  S
N1878      N1879   1.323       .  A
N1878      N1884   1.316       .  A
N1878     Mn1886   2.215       .  S
N1879      C1887   1.356       .  A
N1880      N1882   1.314       .  A
N1880      N1881   1.316       .  A
N1880     Mn1898   2.178       .  S
N1881      C1888   1.347       .  A
N1882      N1883   1.322       .  A
N1882     Mn1886   2.214       .  S
N1883      C1888   1.358       .  A
N1884      N1885   1.319       .  A
N1884     Mn1898   2.201       .  S
N1885      C1887   1.354       .  A
Mn1886    Cl1899   2.555       .  S
C1887      C2409   1.488       .  S
C1888      C2537   1.480       .  S
N1889      N1890   1.322       .  A
N1889      N1895   1.314       .  A
N1889     Mn1897   2.209       .  S
N1890      C1900   1.359       .  A
N1891      N1892   1.316       .  A
N1891      N1893   1.314       .  A
N1891     Mn1898   2.188       .  S
N1892      C1901   1.350       .  A
N1893      N1894   1.319       .  A
N1893     Mn1897   2.186       .  S
N1894      C1901   1.353       .  A
N1895      N1896   1.317       .  A
N1895     Mn1898   2.189       .  S
N1896      C1900   1.350       .  A
Mn1897    Cl1899   2.556       .  S
Mn1898    Cl1899   2.531       .  S
C1900      C2342   1.494       .  S
C1901      C2470   1.477       .  S
N1902      N1903   1.322       .  A
N1902      N1908   1.317       .  A
N1902     Mn1931   2.212       .  S
N1903      C1910   1.353       .  A
N1904      N1906   1.315       .  A
N1904      N1905   1.323       .  A
N1904     Mn1920   2.216       .  S
N1905      C1911   1.358       .  A
N1906      N1907   1.318       .  A
N1906     Mn1931   2.195       .  S
N1907      C1911   1.350       .  A
N1908      N1909   1.324       .  A
N1908     Mn1920   2.221       .  S
N1909      C1910   1.355       .  A
C1910      C2278   1.488       .  S
C1911      C2505   1.490       .  S
N1912      N1918   1.314       .  A
N1912      N1913   1.320       .  A
N1912     Mn1942   2.203       .  S
N1913      C1921   1.355       .  A
N1914      N1915   1.321       .  A
N1914      N1916   1.316       .  A
N1914     Mn1920   2.219       .  S
N1915      C1922   1.357       .  A
N1916      N1917   1.320       .  A
N1916     Mn1942   2.204       .  S
N1917      C1922   1.353       .  A
N1918      N1919   1.322       .  A
N1918     Mn1920   2.215       .  S
N1919      C1921   1.356       .  A
Mn1920    Cl1944   2.555       .  S
C1921      C2329   1.502       .  S
C1922      C2617   1.492       .  S
N1923      N1924   1.321       .  A
N1923      N1929   1.314       .  A
N1923     Mn1931   2.211       .  S
N1924      C1932   1.355       .  A
N1925      N1927   1.315       .  A
N1925      N1926   1.322       .  A
N1925     Mn1943   2.207       .  S
N1926      C1933   1.354       .  A
N1927      N1928   1.319       .  A
N1927     Mn1931   2.209       .  S
N1928      C1933   1.356       .  A
N1929      N1930   1.322       .  A
N1929     Mn1943   2.202       .  S
N1930      C1932   1.355       .  A
Mn1931    Cl1944   2.545       .  S
C1932      C2310   1.495       .  S
C1933      C2598   1.490       .  S
N1934      N1935   1.324       .  A
N1934      N1940   1.317       .  A
N1934     Mn1942   2.216       .  S
N1935      C1945   1.355       .  A
N1936      N1937   1.318       .  A
N1936      N1938   1.313       .  A
N1936     Mn1943   2.197       .  S
N1937      C1946   1.355       .  A
N1938      N1939   1.318       .  A
N1938     Mn1942   2.189       .  S
N1939      C1946   1.351       .  A
N1940      N1941   1.320       .  A
N1940     Mn1943   2.205       .  S
N1941      C1945   1.351       .  A
Mn1942    Cl1944   2.550       .  S
Mn1943    Cl1944   2.552       .  S
C1945      C2297   1.480       .  S
C1946      C2521   1.488       .  S
N1947      N1948   1.322       .  A
N1947     Mn1976   2.205       .  S
N1948      C1955   1.354       .  A
N1949      N1950   1.318       .  A
N1949     Mn1965   2.194       .  S
N1951      N1952   1.323       .  A
N1951     Mn1976   2.216       .  S
N1952      C1956   1.357       .  A
N1953      N1954   1.318       .  A
N1953     Mn1965   2.194       .  S
C1955      C2377   1.488   1_655  S
C1956      C2246   1.497       .  S
N1957      N2839   1.314       .  A
N1957      N1958   1.318       .  A
N1957     Mn1987   2.197       .  S
N1958      C1966   1.351       .  A
N1959      N1960   1.320       .  A
N1959      N2837   1.316   1_545  A
N1959     Mn1965   2.199       .  S
N1960      C2843   1.353   1_545  A
N1961      N2835   1.316       .  A
N1961      N1962   1.322       .  A
N1961     Mn1987   2.210       .  S
N1962      C1967   1.355       .  A
N1963      N2833   1.313   1_545  A
N1963      N1964   1.319       .  A
N1963     Mn1965   2.185       .  S
N1964      C2842   1.353   1_545  A
C1966      N2840   1.356       .  A
C1966      C2214   1.487       .  S
C1967      N2836   1.354       .  A
C1967      C2454   1.480       .  S
N1968      N1969   1.316       .  A
N1968      N2850   1.313   1_545  A
N1968     Mn1976   2.183       .  S
N1969      C2853   1.352   1_545  A
N1970      N2848   1.316       .  A
N1970      N1971   1.324       .  A
N1970     Mn1988   2.219       .  S
N1971      C1978   1.357       .  A
N1972      N2846   1.317   1_545  A
N1972      N1973   1.318       .  A
N1972     Mn1976   2.211       .  S
N1973      C2854   1.355   1_545  A
N1974      N2844   1.313       .  A
N1974      N1975   1.319       .  A
N1974     Mn1988   2.195       .  S
N1975      C1977   1.353       .  A
Mn1976    Cl2865   2.541   1_545  S
C1977      N2845   1.354       .  A
C1977      C2230   1.489       .  S
C1978      N2849   1.355       .  A
C1978      C2441   1.497       .  S
N1979      N1980   1.319       .  A
N1979     Mn1987   2.207       .  S
N1981      N1982   1.322       .  A
N1981     Mn1988   2.212       .  S
N1982      C1991   1.355       .  A
N1983      N1984   1.321       .  A
N1983     Mn1987   2.208       .  S
N1985      N1986   1.320       .  A
N1985     Mn1988   2.203       .  S
N1986      C1990   1.353   1_655  A
Mn1988    Cl1989   2.556   1_655  S
Cl1989    Mn2852   2.543   1_455  S
C1990      C2393   1.499       .  S
C1991      C2262   1.502       .  S
N1992      N1993   1.322       .  A
N1992      N2874   1.316       .  A
N1992     Mn2021   2.215       .  S
N1993      C2000   1.355       .  A
N1994      N2872   1.314   1_545  A
N1994      N1995   1.317       .  A
N1994     Mn2010   2.203       .  S
N1995      C2877   1.352   1_545  A
N1996      N2870   1.315       .  A
N1996      N1997   1.321       .  A
N1996     Mn2021   2.204       .  S
N1997      C2001   1.356       .  A
N1998      N2868   1.316   1_545  A
N1998      N1999   1.321       .  A
N1998     Mn2010   2.207       .  S
N1999      C2876   1.355   1_545  A
C2000      N2875   1.355       .  A
C2000      C2585   1.493       .  S
C2001      N2871   1.353       .  A
C2001      C2182   1.496       .  S
N2002      N2003   1.321       .  A
N2002     Mn2032   2.206       .  S
N2003      C2011   1.357       .  A
N2004      N2005   1.322       .  A
N2004     Mn2010   2.213       .  S
N2006      N2007   1.323       .  A
N2006     Mn2032   2.218       .  S
N2007      C2012   1.355   1_655  A
N2008      N2009   1.317       .  A
N2008     Mn2010   2.192       .  S
C2011      C2150   1.494       .  S
C2012      C2134   1.482       .  S
N2013      N2014   1.320       .  A
N2013     Mn2021   2.207       .  S
N2015      N2016   1.317       .  A
N2015     Mn2033   2.190       .  S
N2016      C2023   1.352   1_655  A
N2017      N2018   1.320       .  A
N2017     Mn2021   2.202       .  S
N2019      N2020   1.318       .  A
N2019     Mn2033   2.194       .  S
N2020      C2022   1.351   1_655  A
C2022      C2166   1.499       .  S
C2023      C2118   1.479       .  S
N2024      N2025   1.322       .  A
N2024      N2906   1.318   1_545  A
N2024     Mn2032   2.216       .  S
N2025      C2911   1.354   1_545  A
N2026      N2027   1.319       .  A
N2026      N2904   1.313       .  A
N2026     Mn2033   2.191       .  S
N2027      C2036   1.352       .  A
N2028      N2902   1.314   1_545  A
N2028      N2029   1.318       .  A
N2028     Mn2032   2.195       .  S
N2029      C2912   1.355   1_545  A
N2030      N2900   1.315       .  A
N2030      N2031   1.322       .  A
N2030     Mn2033   2.206       .  S
N2031      C2035   1.353       .  A
Mn2032    Cl2910   2.553   1_545  S
Mn2033    Cl2034   2.547   1_655  S
Cl2034    Mn2908   2.541   1_455  S
C2035      N2901   1.351       .  A
C2035      C2569   1.474       .  S
C2036      N2905   1.352       .  A
C2036      C2198   1.477       .  S
N2037      C2042   1.355       .  A
N2037      C2041   1.355       .  A
N2037      H2069   1.032       .  S
N2038      C2045   1.350       .  A
N2038      C2046   1.351       .  A
N2039      C2044   1.352       .  A
N2039      C2043   1.352       .  A
N2039      H2070   1.029       .  S
N2040      C2047   1.352       .  A
N2040      C2048   1.353       .  A
C2041      C2049   1.387       .  A
C2041      C2057   1.417       .  A
C2042      C2058   1.418       .  A
C2042      C2050   1.387       .  A
C2043      C2051   1.387       .  A
C2043      C2060   1.413       .  A
C2044      C2059   1.415       .  A
C2044      C2052   1.388       .  A
C2045      C2057   1.412       .  A
C2045      C2053   1.386       .  A
C2046      C2060   1.412       .  A
C2046      C2054   1.386       .  A
C2047      C2055   1.387       .  A
C2047      C2058   1.417       .  A
C2048      C2056   1.386       .  A
C2048      C2059   1.417       .  A
C2049      C2050   1.377       .  A
C2049      H2061   1.082       .  S
C2050      H2062   1.082       .  S
C2051      C2052   1.374       .  A
C2051      H2063   1.083       .  S
C2052      H2064   1.082       .  S
C2053      C2054   1.370       .  A
C2053      H2065   1.082       .  S
C2054      H2066   1.082       .  S
C2055      C2056   1.374       .  A
C2055      H2067   1.082       .  S
C2056      H2068   1.082       .  S
C2057      C2169   1.489       .  S
C2060      C2153   1.483       .  S
N2071      C2076   1.350       .  A
N2071      C2075   1.351       .  A
N2071      H2103   1.039       .  S
N2072      C2079   1.350       .  A
N2072      C2080   1.350       .  A
N2073      C2078   1.354       .  A
N2073      C2077   1.352       .  A
N2073      H2104   1.033       .  S
N2074      C2081   1.351       .  A
N2074      C2082   1.352       .  A
C2075      C2083   1.387       .  A
C2075      C2091   1.408       .  A
C2076      C2092   1.408       .  A
C2076      C2084   1.387       .  A
C2077      C2085   1.387       .  A
C2077      C2094   1.418       .  A
C2078      C2093   1.420       .  A
C2078      C2086   1.387       .  A
C2079      C2091   1.409       .  A
C2079      C2087   1.385       .  A
C2080      C2094   1.415       .  A
C2080      C2088   1.388       .  A
C2081      C2089   1.385       .  A
C2081      C2092   1.413       .  A
C2082      C2090   1.388       .  A
C2082      C2093   1.419       .  A
C2083      C2084   1.371       .  A
C2083      H2095   1.082       .  S
C2084      H2096   1.082       .  S
C2085      C2086   1.377       .  A
C2085      H2097   1.082       .  S
C2086      H2098   1.082       .  S
C2087      C2088   1.367       .  A
C2087      H2099   1.082       .  S
C2088      H2100   1.082       .  S
C2089      C2090   1.368       .  A
C2089      H2101   1.082       .  S
C2090      H2102   1.082       .  S
C2091      C2233   1.480       .  S
C2092      C2201   1.481       .  S
C2093      C2185   1.492       .  S
C2094      C2217   1.486       .  S
C2105      C2106   1.531       .  S
C2105      C2109   1.553       .  S
C2106      H2113   1.086       .  S
C2106      C2107   1.361       .  D
C2107      C2108   1.549       .  S
C2107      C2281   1.488       .  S
C2108      C2110   1.538       .  S
C2108      H2114   1.104       .  S
C2109      C2110   1.370       .  D
C2111      H2116   1.082       .  S
C2111      C2112   1.367       .  D
C2112      C2294   1.496       .  S
C2117      C2118   1.402   1_655  A
C2117      C2122   1.408       .  A
C2117      H2124   1.083       .  S
C2119      C2126   1.521       .  S
C2119      C2120   1.403       .  A
C2120      H2125   1.082       .  S
C2121      C2122   1.425       .  A
C2122      C2123   1.520       .  S
C2123      F2127   1.385       .  S
C2123      F2128   1.376       .  S
C2123      F2129   1.378       .  S
C2126      F2130   1.384       .  S
C2126      F2131   1.382       .  S
C2126      F2132   1.386       .  S
C2133      C2138   1.408       .  A
C2133      H2140   1.085       .  S
C2134      C2135   1.415       .  A
C2135      C2142   1.521       .  S
C2135      C2136   1.409       .  A
C2136      C2137   1.414       .  A
C2136      H2141   1.079       .  S
C2138      C2139   1.524       .  S
C2139      F2143   1.385       .  S
C2139      F2144   1.383       .  S
C2142      F2147   1.384       .  S
C2142      F2148   1.385       .  S
C2149      C2150   1.410       .  A
C2149      C2154   1.406       .  A
C2149      H2156   1.082       .  S
C2151      C2158   1.520       .  S
C2151      C2152   1.404       .  A
C2152      C2153   1.396       .  A
C2152      H2157   1.083       .  S
C2154      C2155   1.518       .  S
C2155      F2159   1.384       .  S
C2155      F2160   1.382       .  S
C2155      F2161   1.382       .  S
C2158      F2162   1.383       .  S
C2158      F2163   1.383       .  S
C2158      F2164   1.385       .  S
C2165      C2170   1.406       .  A
C2165      H2172   1.082       .  S
C2166      C2167   1.429   1_455  A
C2167      C2174   1.520       .  S
C2167      C2168   1.407       .  A
C2168      H2173   1.083       .  S
C2169      C2170   1.412       .  A
C2170      C2171   1.518       .  S
C2171      F2175   1.385       .  S
C2171      F2176   1.383       .  S
C2171      F2177   1.381       .  S
C2174      F2178   1.383       .  S
C2174      F2179   1.383       .  S
C2174      F2180   1.385       .  S
C2181      C2182   1.410       .  A
C2181      C2186   1.409       .  A
C2181      H2188   1.082       .  S
C2182      C2183   1.425       .  A
C2183      C2190   1.518       .  S
C2183      C2184   1.404       .  A
C2184      C2185   1.399       .  A
C2184      H2189   1.084       .  S
C2185      C2186   1.415       .  A
C2186      C2187   1.519       .  S
C2187      F3067   1.385       .  S
C2187      F3068   1.380       .  S
C2187      F2193   1.383       .  S
C2190      F3070   1.373       .  S
C2190      F2195   1.384       .  S
C2190      F2196   1.385       .  S
F2191      C3063   1.383       .  S
F2192      C3063   1.382       .  S
F2194      C3066   1.381       .  S
C2197      C3074   1.406   1_545  A
C2197      C2202   1.401       .  A
C2197      H2204   1.082       .  S
C2198      C3073   1.406       .  A
C2198      C2199   1.420       .  A
C2199      C2206   1.520       .  S
C2199      C2200   1.401       .  A
C2200      C2201   1.400       .  A
C2200      H2205   1.083       .  S
C2201      C3078   1.413       .  A
C2202      C2203   1.520       .  S
C2202      C3077   1.411   1_545  A
C2203      F2207   1.385       .  S
C2203      F2208   1.382       .  S
C2203      F2209   1.382       .  S
C2206      F2210   1.380       .  S
C2206      F2211   1.383       .  S
C2206      F2212   1.385       .  S
C2213      C2214   1.408       .  A
C2213      C2218   1.406       .  A
C2213      H3096   1.082       .  S
C2214      C2215   1.424       .  A
C2215      C2222   1.520       .  S
C2215      C2216   1.405       .  A
C2216      C2217   1.399       .  A
C2216      H2221   1.083       .  S
C2217      C2218   1.412       .  A
C2218      C3095   1.519       .  S
C2219      C3094   1.518       .  S
C2219      F3099   1.384       .  S
C2219      F3100   1.381       .  S
C2219      F2225   1.381       .  S
H2220      C3089   1.084       .  S
C2222      F2226   1.379       .  S
C2222      F3103   1.384       .  S
C2222      F2228   1.385       .  S
F2223      C3095   1.383       .  S
F2224      C3095   1.381       .  S
F2227      C3098   1.383       .  S
C2229      C3106   1.409   1_545  A
C2229      C2234   1.397       .  A
C2229      H2236   1.084       .  S
C2230      C3105   1.411       .  A
C2230      C2231   1.426       .  A
C2231      C2238   1.520       .  S
C2231      C2232   1.404       .  A
C2232      C2233   1.397       .  A
C2232      H2237   1.083       .  S
C2233      C3110   1.408       .  A
C2234      C2235   1.520       .  S
C2234      C3109   1.410   1_545  A
C2235      F2239   1.384       .  S
C2235      F3116   1.383       .  S
C2235      F2241   1.381       .  S
C2238      F2242   1.383       .  S
C2238      F3119   1.383       .  S
C2238      F2244   1.385       .  S
F2240      C3111   1.383       .  S
F2243      C3114   1.383       .  S
C2245      C2246   1.409       .  A
C2245      C2250   1.409       .  A
C2245      H2252   1.082       .  S
C2247      C2254   1.521       .  S
C2247      C2248   1.407       .  A
C2248      H2253   1.083       .  S
C2249      C2250   1.414       .  A
C2250      C2251   1.519       .  S
C2251      F2255   1.384       .  S
C2251      F2256   1.383       .  S
C2254      F2259   1.382       .  S
C2254      F2260   1.384       .  S
C2261      C2262   1.410       .  A
C2261      C2266   1.411       .  A
C2261      H2268   1.082       .  S
C2263      C2270   1.518       .  S
C2263      C2264   1.410       .  A
C2264      H2269   1.083       .  S
C2265      C2266   1.414       .  A
C2266      C2267   1.518       .  S
C2267      F2271   1.385       .  S
C2267      F2272   1.382       .  S
C2267      F2273   1.383       .  S
C2270      F2274   1.382       .  S
C2270      F2275   1.384       .  S
C2270      F2276   1.385       .  S
C2277      C2278   1.402       .  A
C2277      C2282   1.410       .  A
C2277      H2284   1.083       .  S
C2278      C2279   1.421       .  A
C2279      C2286   1.517       .  S
C2279      C2280   1.410       .  A
C2280      C2281   1.400       .  A
C2280      H2285   1.084       .  S
C2281      C2282   1.417       .  A
C2282      C2283   1.514       .  S
C2283      F2287   1.383       .  S
C2283      F2288   1.380       .  S
C2283      F2289   1.384       .  S
C2286      F2290   1.382       .  S
C2286      F2291   1.383       .  S
C2286      F2292   1.385       .  S
C2293      C2294   1.406       .  A
C2293      C2298   1.413       .  A
C2293      H2300   1.083       .  S
C2294      C2295   1.430       .  A
C2295      C2302   1.524       .  S
C2295      C2296   1.405       .  A
C2296      C2297   1.396       .  A
C2296      H2301   1.085       .  S
C2297      C2298   1.416       .  A
C2298      C2299   1.517       .  S
C2299      F2303   1.385       .  S
C2299      F2304   1.382       .  S
C2299      F2305   1.384       .  S
C2302      F2306   1.385       .  S
C2302      F2307   1.380       .  S
C2302      F2308   1.383       .  S
C2309      C2310   1.409       .  A
C2309      C2314   1.409       .  A
C2309      H2316   1.082       .  S
C2310      C2311   1.424       .  A
C2311      C2318   1.513       .  S
C2311      C2312   1.405       .  A
C2312      C2313   1.396       .  A
C2312      H2317   1.084       .  S
C2313      C2314   1.414       .  A
C2314      C2315   1.518       .  S
C2315      F2319   1.384       .  S
C2315      F2320   1.383       .  S
C2315      F2321   1.382       .  S
C2318      F2322   1.384       .  S
C2318      F2323   1.379       .  S
C2318      F2324   1.385       .  S
C2325      C2326   1.399       .  A
C2325      C2330   1.410       .  A
C2325      H2332   1.083       .  S
C2326      C2327   1.412       .  A
C2327      C2334   1.520       .  S
C2327      C2328   1.408       .  A
C2328      C2329   1.412       .  A
C2328      H2333   1.082       .  S
C2329      C2330   1.427       .  A
C2330      C2331   1.518       .  S
C2331      F2335   1.385       .  S
C2331      F2336   1.383       .  S
C2331      F2337   1.382       .  S
C2334      F2338   1.383       .  S
C2334      F2339   1.382       .  S
C2334      F2340   1.384       .  S
C2341      C2342   1.408       .  A
C2341      C2346   1.406       .  A
C2341      H2348   1.082       .  S
C2342      C2343   1.429       .  A
C2343      C2350   1.521       .  S
C2343      C2344   1.408       .  A
C2344      C2345   1.398       .  A
C2344      H2349   1.083       .  S
C2345      C2346   1.413       .  A
C2346      C2347   1.519       .  S
C2347      F2351   1.385       .  S
C2347      F2352   1.382       .  S
C2347      F2353   1.382       .  S
C2350      F2354   1.383       .  S
C2350      F2355   1.383       .  S
C2350      F2356   1.385       .  S
C2357      C2358   1.412       .  A
C2357      C2362   1.408       .  A
C2357      H2364   1.082       .  S
C2358      C2359   1.425       .  A
C2359      C2366   1.519       .  S
C2359      C2360   1.407       .  A
C2360      C2361   1.399       .  A
C2360      H2365   1.083       .  S
C2361      C2362   1.412       .  A
C2362      C2363   1.520       .  S
C2363      F2367   1.384       .  S
C2363      F2368   1.383       .  S
C2363      F2369   1.382       .  S
C2366      F2370   1.384       .  S
C2366      F2371   1.383       .  S
C2366      F2372   1.385       .  S
C2373      C2374   1.418   1_655  A
C2373      C2378   1.410       .  A
C2373      H2380   1.075       .  S
C2375      C2382   1.524       .  S
C2375      C2376   1.402       .  A
C2376      H2381   1.085       .  S
C2377      C2378   1.411   1_455  A
C2378      C2379   1.520       .  S
C2379      F2383   1.385       .  S
C2379      F2384   1.384       .  S
C2379      F2385   1.382       .  S
C2382      F2386   1.384       .  S
C2382      F2387   1.372       .  S
C2382      F2388   1.383       .  S
C2389      C2390   1.400   1_655  A
C2389      C2394   1.412       .  A
C2389      H2396   1.083       .  S
C2391      C2398   1.517       .  S
C2391      C2392   1.407       .  A
C2392      H2397   1.083       .  S
C2393      C2394   1.426   1_455  A
C2394      C2395   1.515       .  S
C2395      F2399   1.385       .  S
C2395      F2400   1.381       .  S
C2395      F2401   1.383       .  S
C2398      F2402   1.380       .  S
C2398      F2403   1.381       .  S
C2398      F2404   1.385       .  S
C2405      C2406   1.403       .  A
C2405      C2410   1.412       .  A
C2405      H2412   1.082       .  S
C2406      C2407   1.417       .  A
C2407      C2414   1.520       .  S
C2407      C2408   1.403       .  A
C2408      C2409   1.406       .  A
C2408      H2413   1.084       .  S
C2409      C2410   1.420       .  A
C2410      C2411   1.518       .  S
C2411      F2415   1.385       .  S
C2411      F2416   1.384       .  S
C2411      F2417   1.382       .  S
C2414      F2418   1.383       .  S
C2414      F2419   1.384       .  S
C2414      F2420   1.383       .  S
C2421      C2422   1.402       .  A
C2421      C2426   1.409       .  A
C2421      H2428   1.070       .  S
C2422      C2423   1.427       .  A
C2423      C2430   1.519       .  S
C2423      C2424   1.409       .  A
C2424      C2425   1.399       .  A
C2424      H2429   1.085       .  S
C2425      C2426   1.415       .  A
C2426      C2427   1.519       .  S
C2427      F2431   1.384       .  S
C2427      F2432   1.383       .  S
C2427      F2433   1.383       .  S
C2430      F2434   1.383       .  S
C2430      F2435   1.381       .  S
C2430      F2436   1.384       .  S
C2437      C2438   1.402       .  A
C2437      C2442   1.414       .  A
C2437      H2444   1.079       .  S
C2438      C3315   1.422       .  A
C2439      C2446   1.524       .  S
C2439      C3314   1.423       .  A
C2439      C2440   1.400       .  A
C2440      C3317   1.404   1_545  A
C2440      H2445   1.084       .  S
C2441      C3316   1.404       .  A
C2441      C2442   1.422       .  A
C2442      C2443   1.515       .  S
C2443      F3323   1.384       .  S
C2443      F3324   1.382       .  S
C2443      F2449   1.382       .  S
C2446      F2450   1.380       .  S
C2446      F3327   1.384       .  S
C2446      F3328   1.383       .  S
F2447      C3319   1.385       .  S
F2448      C3319   1.383       .  S
F2451      C3322   1.385       .  S
F2452      C3322   1.383       .  S
C2453      C2454   1.399       .  A
C2453      C2458   1.413       .  A
C2453      H2460   1.083       .  S
C2454      C3331   1.409       .  A
C2455      C2462   1.519   1_565  S
C2455      C3330   1.407       .  A
C2455      C2456   1.403   1_565  A
C2456      C3333   1.413   1_545  A
C2456      H2461   1.083       .  S
C2457      C3332   1.417       .  A
C2457      C2458   1.430       .  A
C2458      C2459   1.518       .  S
C2459      F2463   1.381       .  S
C2459      F2464   1.377       .  S
C2459      F3341   1.385       .  S
C2462      F3342   1.384   1_545  S
C2462      F2467   1.383       .  S
C2462      F2468   1.384       .  S
F2465      C3335   1.384       .  S
F2466      C3338   1.384       .  S
C2469      C2470   1.399       .  A
C2469      C2474   1.406       .  A
C2469      H2476   1.085       .  S
C2470      C2471   1.409       .  A
C2471      C2478   1.525       .  S
C2471      C2472   1.401       .  A
C2472      C2473   1.417       .  A
C2472      H2477   1.066       .  S
C2473      C2474   1.439       .  A
C2474      C2475   1.531       .  S
C2475      F2479   1.384       .  S
C2475      F2480   1.384       .  S
C2475      F2481   1.374       .  S
C2478      F2482   1.384       .  S
C2478      F2483   1.383       .  S
C2478      F2484   1.384       .  S
C2485      C2486   1.400       .  A
C2485      C2490   1.408       .  A
C2485      H2492   1.079       .  S
C2486      C2487   1.419       .  A
C2487      C2494   1.522       .  S
C2487      C2488   1.403       .  A
C2488      C2489   1.403       .  A
C2488      H2493   1.082       .  S
C2489      C2490   1.422       .  A
C2490      C2491   1.521       .  S
C2491      F2495   1.385       .  S
C2491      F2496   1.383       .  S
C2491      F2497   1.383       .  S
C2494      F2498   1.380       .  S
C2494      F2499   1.380       .  S
C2494      F2500   1.385       .  S
C2501      C2502   1.398       .  A
C2501      C2506   1.404       .  A
C2501      H2508   1.083       .  S
C2502      C2503   1.413       .  A
C2503      C2510   1.520       .  S
C2503      C2504   1.408       .  A
C2504      C2505   1.407       .  A
C2504      H2509   1.081       .  S
C2505      C2506   1.426       .  A
C2506      C2507   1.520       .  S
C2507      F2511   1.385       .  S
C2507      F2512   1.383       .  S
C2507      F2513   1.375       .  S
C2510      F2514   1.383       .  S
C2510      F2515   1.381       .  S
C2510      F2516   1.383       .  S
C2517      C2518   1.398       .  A
C2517      C2522   1.405       .  A
C2517      H2524   1.083       .  S
C2518      C2519   1.410       .  A
C2519      C2526   1.520       .  S
C2519      C2520   1.401       .  A
C2520      C2521   1.409       .  A
C2520      H2525   1.082       .  S
C2521      C2522   1.427       .  A
C2522      C2523   1.521       .  S
C2523      F2527   1.385       .  S
C2523      F2528   1.383       .  S
C2523      F2529   1.383       .  S
C2526      F2530   1.383       .  S
C2526      F2531   1.382       .  S
C2526      F2532   1.385       .  S
C2533      C2534   1.404       .  A
C2533      C2538   1.403       .  A
C2533      H2540   1.083       .  S
C2534      C2535   1.423       .  A
C2535      C2542   1.519       .  S
C2535      C2536   1.402       .  A
C2536      C2537   1.400       .  A
C2536      H2541   1.085       .  S
C2537      C2538   1.422       .  A
C2538      C2539   1.521       .  S
C2539      F2543   1.386       .  S
C2539      F2544   1.381       .  S
C2539      F2545   1.383       .  S
C2542      F2546   1.384       .  S
C2542      F2547   1.380       .  S
C2542      F2548   1.384       .  S
C2549      C2550   1.399       .  A
C2549      C2554   1.404       .  A
C2549      H2556   1.083       .  S
C2550      C2551   1.415       .  A
C2551      C2558   1.520       .  S
C2551      C2552   1.403       .  A
C2552      C2553   1.408       .  A
C2552      H2557   1.084       .  S
C2553      C2554   1.425       .  A
C2554      C2555   1.521       .  S
C2555      F2559   1.385       .  S
C2555      F2560   1.384       .  S
C2555      F2561   1.383       .  S
C2558      F2562   1.381       .  S
C2558      F2563   1.383       .  S
C2558      F2564   1.384       .  S
C2565      C2566   1.405       .  A
C2565      C2570   1.411       .  A
C2565      H2572   1.083       .  S
C2566      C3443   1.422       .  A
C2567      C2574   1.517       .  S
C2567      C3442   1.420       .  A
C2567      C2568   1.406       .  A
C2568      C3445   1.399       .  A
C2568      H2573   1.085       .  S
C2569      C3444   1.397       .  A
C2569      C2570   1.416       .  A
C2570      C2571   1.519       .  S
C2571      F2575   1.384       .  S
C2571      F2576   1.383       .  S
C2571      F2577   1.383       .  S
C2574      F2578   1.382   1_565  S
C2574      F2579   1.381       .  S
C2574      F2580   1.385       .  S
C2581      C3458   1.403       .  A
C2581      C2586   1.411       .  A
C2581      H2588   1.082       .  S
C2582      C3457   1.403       .  A
C2582      C2583   1.418       .  A
C2583      C2590   1.520       .  S
C2583      C2584   1.405       .  A
C2584      C2585   1.407       .  A
C2584      H2589   1.084       .  S
C2585      C3462   1.422       .  A
C2586      C2587   1.519       .  S
C2586      C3461   1.420       .  A
C2587      F2591   1.384       .  S
C2587      F2592   1.383       .  S
C2587      F3469   1.383       .  S
C2590      F2594   1.382       .  S
C2590      F2595   1.384       .  S
C2590      F2596   1.383       .  S
F2593      C3463   1.383       .  S
C2597      C2598   1.398       .  A
C2597      C2602   1.406       .  A
C2597      H2604   1.085       .  S
C2598      C2599   1.414       .  A
C2599      C2606   1.521       .  S
C2599      C2600   1.411       .  A
C2600      C2601   1.418       .  A
C2600      H2605   1.073       .  S
C2601      C2602   1.436       .  A
C2602      C2603   1.521       .  S
C2603      F2607   1.383       .  S
C2603      F2608   1.385       .  S
C2603      F2609   1.371       .  S
C2606      F2610   1.383       .  S
C2606      F2611   1.382       .  S
C2606      F2612   1.385       .  S
C2613      C2614   1.402       .  A
C2613      C2618   1.411       .  A
C2613      H2620   1.083       .  S
C2614      C2615   1.418       .  A
C2615      C2622   1.516       .  S
C2615      C2616   1.404       .  A
C2616      C2617   1.404       .  A
C2616      H2621   1.084       .  S
C2617      C2618   1.423       .  A
C2618      C2619   1.519       .  S
C2619      F2623   1.385       .  S
C2619      F2624   1.382       .  S
C2619      F2625   1.384       .  S
C2622      F2626   1.378       .  S
C2622      F2627   1.384       .  S
C2622      F2628   1.382       .  S
C2629      C2630   1.553       .  S
C2629      C2635   1.537       .  S
C2629      C2633   1.544       .  S
C2629      C3477   1.561       .  S
C2630      H2637   1.081       .  S
C2631      C2632   1.536   1_545  S
C2631      C3442   1.489   1_545  S
C2632      C2636   1.536   1_565  S
C2632      C2634   1.538       .  S
C2632      H2638   1.111       .  S
C2634      C3490   1.487       .  S
C2635      H2640   1.086       .  S
C2636      C3458   1.485   1_545  S
N2641      C2646   1.347   1_556  A
N2641      C2645   1.352       .  A
N2641      H2673   1.035       .  S
N2642      C2650   1.352       .  A
N2643      C2648   1.349   1_556  A
N2643      C2647   1.350       .  A
N2643      H2674   1.037       .  S
N2644      C2652   1.351       .  A
C2645      C2653   1.385       .  A
C2645      C2661   1.413       .  A
C2646      C2662   1.416       .  A
C2646      C2654   1.390       .  A
C2647      C2655   1.382       .  A
C2647      C2664   1.412       .  A
C2648      C2663   1.422       .  A
C2648      C2656   1.392       .  A
C2649      C2661   1.397       .  A
C2649      C2657   1.384       .  A
C2650      C2664   1.404       .  A
C2650      C2658   1.383       .  A
C2651      C2659   1.386       .  A
C2651      C2662   1.422       .  A
C2652      C2660   1.388       .  A
C2652      C2663   1.420       .  A
C2653      C2654   1.382   1_556  A
C2653      H2665   1.082       .  S
C2654      H2666   1.082       .  S
C2655      C2656   1.386   1_556  A
C2655      H2667   1.082       .  S
C2656      H2668   1.082       .  S
C2657      H2669   1.083       .  S
C2658      H2670   1.083       .  S
C2659      H2671   1.082       .  S
C2660      H2672   1.082       .  S
C2661      C3426   1.480       .  S
C2662      C3394   1.488       .  S
C2663      C3378   1.488       .  S
C2664      C3410   1.496       .  S
C2675      C2676   1.550       .  S
C2675      C2681   1.520       .  S
C2675      C2679   1.530       .  S
C2675      C3349   1.538       .  S
C2676      H2683   1.084       .  S
C2677      C2678   1.543   1_545  S
C2677      C3333   1.500   1_545  S
C2678      C2682   1.548   1_565  S
C2678      C2680   1.539       .  S
C2678      H2684   1.103       .  S
C2680      C3362   1.479       .  S
C2681      H2686   1.086       .  S
C2682      C3314   1.489       .  S
C2687      C2693   1.529       .  S
C2687      C2691   1.545       .  S
C2688      H2695   1.082       .  S
C2688      C2689   1.365       .  D
C2689      C3298   1.482       .  S
C2690      C2694   1.537       .  S
C2690      C2692   1.538       .  S
C2690      H2696   1.111       .  S
C2691      H2697   1.085       .  S
C2691      C2692   1.372       .  D
C2693      H2698   1.086       .  S
C2693      C2694   1.364       .  D
C2694      C3282   1.481       .  S
N2699      C2704   1.352       .  A
N2699      C2703   1.352   1_554  A
N2699      H2731   1.039       .  S
N2700      C2708   1.354       .  A
N2701      C2706   1.353   1_556  A
N2701      C2705   1.355       .  A
N2701      H2732   1.036   1_556  S
N2702      C2710   1.350       .  A
C2703      C2711   1.387       .  A
C2703      C2719   1.413       .  A
C2704      C2720   1.412       .  A
C2704      C2712   1.386       .  A
C2705      C2713   1.387       .  A
C2705      C2722   1.419       .  A
C2706      C2721   1.418       .  A
C2706      C2714   1.387       .  A
C2707      C2719   1.410       .  A
C2707      C2715   1.386       .  A
C2708      C2722   1.417       .  A
C2708      C2716   1.386       .  A
C2709      C2717   1.385       .  A
C2709      C2720   1.413       .  A
C2710      C2718   1.388       .  A
C2710      C2721   1.415       .  A
C2711      C2712   1.376   1_556  A
C2711      H2723   1.082       .  S
C2712      H2724   1.082       .  S
C2713      C2714   1.378   1_556  A
C2713      H2725   1.082       .  S
C2714      H2726   1.082       .  S
C2715      H2727   1.082       .  S
C2716      H2728   1.082       .  S
C2717      H2729   1.082       .  S
C2718      H2730   1.082       .  S
C2719      C3237   1.486       .  S
C2720      C3202   1.490       .  S
C2721      C3189   1.485       .  S
C2722      C3221   1.497       .  S
N2733      N2734   1.320       .  A
N2733      N2739   1.315       .  A
N2733     Mn2762   2.207       .  S
N2734      C2741   1.353       .  A
N2735      N2737   1.315       .  A
N2735      N2736   1.321       .  A
N2735     Mn2751   2.209       .  S
N2736      C2742   1.355       .  A
N2737      N2738   1.319       .  A
N2737     Mn2762   2.205       .  S
N2738      C2742   1.356       .  A
N2739      N2740   1.322       .  A
N2739     Mn2751   2.210       .  S
N2740      C2741   1.357       .  A
C2741      C3234   1.495       .  S
C2742      C3365   1.497       .  S
N2743      N2749   1.317       .  A
N2743      N2744   1.319       .  A
N2743     Mn2773   2.203       .  S
N2744      C2752   1.351       .  A
N2745      N2746   1.319       .  A
N2745      N2747   1.314       .  A
N2745     Mn2751   2.201       .  S
N2746      C2753   1.353       .  A
N2747      N2748   1.317       .  A
N2747     Mn2773   2.185       .  S
N2748      C2753   1.353       .  A
N2749      N2750   1.323       .  A
N2749     Mn2751   2.214       .  S
N2750      C2752   1.354       .  A
Mn2751    Cl2775   2.555       .  S
C2752      C3301   1.475       .  S
C2753      C3429   1.490       .  S
N2754      N2755   1.323       .  A
N2754      N2760   1.315       .  A
N2754     Mn2762   2.210       .  S
N2755      C2763   1.356       .  A
N2756      N2758   1.315       .  A
N2756      N2757   1.320       .  A
N2756     Mn2774   2.206       .  S
N2757      C2764   1.353       .  A
N2758      N2759   1.321       .  A
N2758     Mn2762   2.201       .  S
N2759      C2764   1.355       .  A
N2760      N2761   1.317       .  A
N2760     Mn2774   2.198       .  S
N2761      C2763   1.353       .  A
Mn2762    Cl2775   2.549       .  S
C2763      C3285   1.488       .  S
C2764      C3413   1.490       .  S
N2765      N2766   1.321       .  A
N2765      N2771   1.314       .  A
N2765     Mn2773   2.209       .  S
N2766      C2776   1.357       .  A
N2767      N2768   1.321       .  A
N2767      N2769   1.314       .  A
N2767     Mn2774   2.207       .  S
N2768      C2777   1.355       .  A
N2769      N2770   1.317       .  A
N2769     Mn2773   2.191       .  S
N2770      C2777   1.352       .  A
N2771      N2772   1.321       .  A
N2771     Mn2774   2.207       .  S
N2772      C2776   1.355       .  A
Mn2773    Cl2775   2.543       .  S
Mn2774    Cl2775   2.548       .  S
C2776      C3218   1.503       .  S
C2777      C3346   1.472       .  S
N2778      N2779   1.319       .  A
N2778      N2784   1.317       .  A
N2778     Mn2807   2.203       .  S
N2779      C2786   1.351       .  A
N2780      N2782   1.315       .  A
N2780      N2781   1.320       .  A
N2780     Mn2796   2.198       .  S
N2781      C2787   1.354       .  A
N2782      N2783   1.320       .  A
N2782     Mn2807   2.210       .  S
N2783      C2787   1.354       .  A
N2784      N2785   1.323       .  A
N2784     Mn2796   2.214       .  S
N2785      C2786   1.355       .  A
C2786      C3154   1.484       .  S
C2787      C3381   1.491       .  S
N2788      N2794   1.314       .  A
N2788      N2789   1.320       .  A
N2788     Mn2818   2.195       .  S
N2789      C2797   1.353       .  A
N2790      N2791   1.318       .  A
N2790      N2792   1.316       .  A
N2790     Mn2796   2.205       .  S
N2791      C2798   1.354       .  A
N2792      N2793   1.322       .  A
N2792     Mn2818   2.207       .  S
N2793      C2798   1.355       .  A
N2794      N2795   1.322       .  A
N2794     Mn2796   2.211       .  S
N2795      C2797   1.356       .  A
Mn2796    Cl2820   2.548       .  S
C2797      C3205   1.491       .  S
C2798      C3493   1.486       .  S
N2799      N2800   1.319       .  A
N2799      N2805   1.313       .  A
N2799     Mn2807   2.204       .  S
N2800      C2808   1.354       .  A
N2801      N2803   1.315       .  A
N2801      N2802   1.321       .  A
N2801     Mn2819   2.205       .  S
N2802      C2809   1.353       .  A
N2803      N2804   1.322       .  A
N2803     Mn2807   2.220       .  S
N2804      C2809   1.358       .  A
N2805      N2806   1.320       .  A
N2805     Mn2819   2.191       .  S
N2806      C2808   1.355       .  A
Mn2807    Cl2820   2.546       .  S
C2808      C3186   1.493       .  S
C2809      C3474   1.494       .  S
N2810      N2811   1.321       .  A
N2810      N2816   1.316       .  A
N2810     Mn2818   2.201       .  S
N2811      C2821   1.353       .  A
N2812      N2813   1.320       .  A
N2812      N2814   1.313       .  A
N2812     Mn2819   2.201       .  S
N2813      C2822   1.356       .  A
N2814      N2815   1.319       .  A
N2814     Mn2818   2.194       .  S
N2815      C2822   1.352       .  A
N2816      N2817   1.316       .  A
N2816     Mn2819   2.187       .  S
N2817      C2821   1.348       .  A
Mn2818    Cl2820   2.553       .  S
Mn2819    Cl2820   2.545       .  S
C2821      C3173   1.464       .  S
C2822      C3397   1.494       .  S
N2823      N2824   1.320       .  A
N2823     Mn2852   2.202       .  S
N2824      C2831   1.353   1_655  A
N2825      N2826   1.325       .  A
N2825     Mn2841   2.225       .  S
N2827      N2828   1.319       .  A
N2827     Mn2852   2.201       .  S
N2828      C2832   1.354       .  A
N2829      N2830   1.317       .  A
N2829     Mn2841   2.192       .  S
C2831      C3253   1.489       .  S
C2832      C3122   1.499       .  S
N2833      N2834   1.317       .  A
N2833     Mn2863   2.200       .  S
N2834      C2842   1.353       .  A
N2835      N2836   1.321       .  A
N2835     Mn2841   2.213       .  S
N2837      N2838   1.320       .  A
N2837     Mn2863   2.201       .  S
N2838      C2843   1.351       .  A
N2839      N2840   1.321       .  A
N2839     Mn2841   2.198       .  S
C2842      C3090   1.489       .  S
C2843      C3330   1.470       .  S
N2844      N2845   1.318       .  A
N2844     Mn2852   2.189       .  S
N2846      N2847   1.325       .  A
N2846     Mn2864   2.219       .  S
N2847      C2854   1.357       .  A
N2848      N2849   1.320       .  A
N2848     Mn2852   2.210       .  S
N2850      N2851   1.319       .  A
N2850     Mn2864   2.193       .  S
N2851      C2853   1.353       .  A
C2853      C3106   1.484       .  S
C2854      C3317   1.496       .  S
N2855      N2856   1.320       .  A
N2855     Mn2863   2.201       .  S
N2857      N2858   1.323       .  A
N2857     Mn2864   2.219       .  S
N2858      C2867   1.358       .  A
N2859      N2860   1.321       .  A
N2859     Mn2863   2.211       .  S
N2861      N2862   1.322       .  A
N2861     Mn2864   2.208       .  S
N2862      C2866   1.356       .  A
Mn2864    Cl2865   2.561       .  S
C2866      C3269   1.494       .  S
C2867      C3138   1.506       .  S
N2868      N2869   1.321       .  A
N2868     Mn2897   2.206       .  S
N2869      C2876   1.353       .  A
N2870      N2871   1.319       .  A
N2870     Mn2886   2.207       .  S
N2872      N2873   1.322       .  A
N2872     Mn2897   2.201       .  S
N2873      C2877   1.355       .  A
N2874      N2875   1.320       .  A
N2874     Mn2886   2.203       .  S
C2876      C3461   1.489       .  S
C2877      C3058   1.488       .  S
N2878      N2879   1.321       .  A
N2878     Mn2908   2.197       .  S
N2879      C2887   1.355       .  A
N2880      N2881   1.322       .  A
N2880     Mn2886   2.214       .  S
N2882      N2883   1.317       .  A
N2882     Mn2908   2.188       .  S
N2883      C2888   1.349       .  A
N2884      N2885   1.321       .  A
N2884     Mn2886   2.200       .  S
C2887      C3026   1.490       .  S
C2888      C3010   1.472       .  S
N2889      N2890   1.322       .  A
N2889     Mn2897   2.199       .  S
N2891      N2892   1.320       .  A
N2891     Mn2909   2.199       .  S
N2892      C2899   1.355   1_655  A
N2893      N2894   1.317       .  A
N2893     Mn2897   2.203       .  S
N2895      N2896   1.321       .  A
N2895     Mn2909   2.209       .  S
N2896      C2898   1.354       .  A
C2898      C3042   1.494       .  S
C2899      C2994   1.476       .  S
N2900      N2901   1.320       .  A
N2900     Mn2908   2.199       .  S
N2902      N2903   1.317       .  A
N2902     Mn2909   2.184       .  S
N2903      C2912   1.350       .  A
N2904      N2905   1.316       .  A
N2904     Mn2908   2.186       .  S
N2906      N2907   1.322       .  A
N2906     Mn2909   2.211       .  S
N2907      C2911   1.352       .  A
Mn2909    Cl2910   2.545       .  S
C2911      C3445   1.479       .  S
C2912      C3074   1.483       .  S
N2913      C2918   1.352       .  A
N2913      C2917   1.352       .  A
N2913      H2945   1.039       .  S
N2914      C2921   1.350       .  A
N2914      C2922   1.350       .  A
N2915      C2920   1.351       .  A
N2915      C2919   1.352       .  A
N2915      H2946   1.036       .  S
N2916      C2923   1.350       .  A
N2916      C2924   1.351       .  A
C2917      C2925   1.387       .  A
C2917      C2933   1.413       .  A
C2918      C2934   1.413       .  A
C2918      C2926   1.387       .  A
C2919      C2927   1.387       .  A
C2919      C2936   1.415       .  A
C2920      C2935   1.414       .  A
C2920      C2928   1.387       .  A
C2921      C2933   1.411       .  A
C2921      C2929   1.386       .  A
C2922      C2936   1.413       .  A
C2922      C2930   1.387       .  A
C2923      C2931   1.386       .  A
C2923      C2934   1.411       .  A
C2924      C2932   1.387       .  A
C2924      C2935   1.413       .  A
C2925      C2926   1.377       .  A
C2925      H2937   1.082       .  S
C2926      H2938   1.082       .  S
C2927      C2928   1.376       .  A
C2927      H2939   1.082       .  S
C2928      H2940   1.082       .  S
C2929      C2930   1.371       .  A
C2929      H2941   1.082       .  S
C2930      H2942   1.082       .  S
C2931      C2932   1.372       .  A
C2931      H2943   1.082       .  S
C2932      H2944   1.082       .  S
C2933      C3045   1.486       .  S
C2936      C3029   1.484       .  S
N2947      C2952   1.351       .  A
N2947      C2951   1.347   1_565  A
N2947      H2979   1.035       .  S
N2948      C2955   1.350       .  A
N2948      C2956   1.350       .  A
N2949      C2954   1.351       .  A
N2949      C2953   1.351   1_565  A
N2949      H2980   1.036       .  S
N2950      C2957   1.350       .  A
N2950      C2958   1.349       .  A
C2951      C2959   1.386       .  A
C2951      C2967   1.407       .  A
C2952      C2968   1.412       .  A
C2952      C2960   1.388   1_565  A
C2953      C2961   1.386       .  A
C2953      C2970   1.411       .  A
C2954      C2969   1.414       .  A
C2954      C2962   1.388   1_565  A
C2955      C2967   1.409       .  A
C2955      C2963   1.386   1_545  A
C2956      C2970   1.410       .  A
C2956      C2964   1.387       .  A
C2957      C2965   1.386       .  A
C2957      C2968   1.411       .  A
C2958      C2966   1.387       .  A
C2958      C2969   1.412       .  A
C2959      C2960   1.374       .  A
C2959      H2971   1.082       .  S
C2960      H2972   1.082       .  S
C2961      C2962   1.375       .  A
C2961      H2973   1.082       .  S
C2962      H2974   1.082       .  S
C2963      C2964   1.367   1_565  A
C2963      H2975   1.082       .  S
C2964      H2976   1.082       .  S
C2965      C2966   1.371       .  A
C2965      H2977   1.082       .  S
C2966      H2978   1.082       .  S
C2967      C3109   1.472   1_545  S
C2968      C3077   1.481       .  S
C2969      C3061   1.481       .  S
C2970      C3093   1.478       .  S
C2981      C2982   1.528       .  S
C2981      C2985   1.552       .  S
C2982      H2989   1.083       .  S
C2982      C2983   1.359       .  D
C2983      C2984   1.548       .  S
C2983      C3157   1.485       .  S
C2984      C2986   1.538       .  S
C2984      H2990   1.103       .  S
C2985      C2986   1.372       .  D
C2987      H2992   1.086       .  S
C2987      C2988   1.359       .  D
C2988      C3170   1.484       .  S
C2993      C2994   1.400   1_655  A
C2993      C2998   1.405       .  A
C2993      H3000   1.083       .  S
C2995      C3002   1.521       .  S
C2995      C2996   1.401       .  A
C2996      H3001   1.081       .  S
C2997      C2998   1.422       .  A
C2998      C2999   1.517       .  S
C2999      F3003   1.385       .  S
C2999      F3004   1.374       .  S
C2999      F3005   1.379       .  S
C3002      F3006   1.383       .  S
C3002      F3007   1.383       .  S
C3002      F3008   1.385       .  S
C3009      C3014   1.406       .  A
C3009      H3016   1.085       .  S
C3010      C3011   1.412       .  A
C3011      C3018   1.522       .  S
C3011      C3012   1.401       .  A
C3012      C3013   1.413       .  A
C3012      H3017   1.077       .  S
C3014      C3015   1.524       .  S
C3015      F3019   1.385       .  S
C3015      F3020   1.383       .  S
C3018      F3023   1.383       .  S
C3018      F3024   1.385       .  S
C3025      C3026   1.407       .  A
C3025      C3030   1.406       .  A
C3025      H3032   1.082       .  S
C3027      C3034   1.512       .  S
C3027      C3028   1.404       .  A
C3028      C3029   1.396       .  A
C3028      H3033   1.083       .  S
C3030      C3031   1.519       .  S
C3031      F3035   1.385       .  S
C3031      F3036   1.382       .  S
C3031      F3037   1.382       .  S
C3034      F3038   1.383       .  S
C3034      F3039   1.384       .  S
C3034      F3040   1.386       .  S
C3041      C3046   1.407       .  A
C3041      H3048   1.083       .  S
C3042      C3043   1.422       .  A
C3043      C3050   1.520       .  S
C3043      C3044   1.409       .  A
C3044      H3049   1.083       .  S
C3045      C3046   1.413       .  A
C3046      C3047   1.518       .  S
C3047      F3051   1.384       .  S
C3047      F3052   1.383       .  S
C3047      F3053   1.382       .  S
C3050      F3054   1.384       .  S
C3050      F3055   1.381       .  S
C3050      F3056   1.385       .  S
C3057      C3058   1.410       .  A
C3057      C3062   1.408       .  A
C3057      H3064   1.083       .  S
C3058      C3059   1.425   1_565  A
C3059      C3066   1.520       .  S
C3059      C3060   1.402       .  A
C3060      C3061   1.395   1_545  A
C3060      H3065   1.083       .  S
C3061      C3062   1.410       .  A
C3062      C3063   1.518       .  S
C3063      F3069   1.384       .  S
C3066      F3071   1.384       .  S
C3066      F3072   1.385       .  S
C3073      C3078   1.402       .  A
C3073      H3080   1.083       .  S
C3074      C3075   1.425       .  A
C3075      C3082   1.521       .  S
C3075      C3076   1.406       .  A
C3076      C3077   1.399       .  A
C3076      H3081   1.083       .  S
C3078      C3079   1.520       .  S
C3079      F3083   1.385       .  S
C3079      F3084   1.381       .  S
C3079      F3085   1.383       .  S
C3082      F3086   1.384       .  S
C3082      F3087   1.383       .  S
C3082      F3088   1.384       .  S
C3089      C3090   1.410   1_545  A
C3089      C3094   1.404       .  A
C3090      C3091   1.424       .  A
C3091      C3098   1.517       .  S
C3091      C3092   1.400       .  A
C3092      C3093   1.396   1_565  A
C3092      H3097   1.084       .  S
C3093      C3094   1.413       .  A
C3095      F3101   1.383       .  S
C3098      F3102   1.373       .  S
C3098      F3104   1.384       .  S
C3105      C3110   1.403       .  A
C3105      H3112   1.082       .  S
C3106      C3107   1.424       .  A
C3107      C3114   1.521       .  S
C3107      C3108   1.404       .  A
C3108      C3109   1.399       .  A
C3108      H3113   1.083       .  S
C3110      C3111   1.519       .  S
C3111      F3115   1.385       .  S
C3111      F3117   1.383       .  S
C3114      F3118   1.383       .  S
C3114      F3120   1.385       .  S
C3121      C3122   1.411       .  A
C3121      C3126   1.407       .  A
C3121      H3128   1.082       .  S
C3123      C3130   1.517       .  S
C3123      C3124   1.409       .  A
C3124      H3129   1.083       .  S
C3125      C3126   1.413       .  A
C3126      C3127   1.520       .  S
C3127      F3131   1.385       .  S
C3127      F3132   1.382       .  S
C3130      F3135   1.382       .  S
C3130      F3136   1.385       .  S
C3137      C3138   1.410       .  A
C3137      C3142   1.411       .  A
C3137      H3144   1.082       .  S
C3139      C3146   1.510       .  S
C3139      C3140   1.404       .  A
C3140      H3145   1.083       .  S
C3141      C3142   1.414       .  A
C3142      C3143   1.517       .  S
C3143      F3147   1.385       .  S
C3143      F3148   1.382       .  S
C3143      F3149   1.382       .  S
C3146      F3150   1.383       .  S
C3146      F3151   1.384       .  S
C3146      F3152   1.385       .  S
C3153      C3154   1.402       .  A
C3153      C3158   1.408       .  A
C3153      H3160   1.083       .  S
C3154      C3155   1.422       .  A
C3155      C3162   1.519       .  S
C3155      C3156   1.407       .  A
C3156      C3157   1.400       .  A
C3156      H3161   1.084       .  S
C3157      C3158   1.415       .  A
C3158      C3159   1.511       .  S
C3159      F3163   1.381       .  S
C3159      F3164   1.381       .  S
C3159      F3165   1.384       .  S
C3162      F3166   1.382       .  S
C3162      F3167   1.383       .  S
C3162      F3168   1.385       .  S
C3169      C3170   1.405       .  A
C3169      C3174   1.408       .  A
C3169      H3176   1.083       .  S
C3170      C3171   1.429       .  A
C3171      C3178   1.526       .  S
C3171      C3172   1.399       .  A
C3172      C3173   1.392       .  A
C3172      H3177   1.085       .  S
C3173      C3174   1.414       .  A
C3174      C3175   1.518       .  S
C3175      F3179   1.384       .  S
C3175      F3180   1.382       .  S
C3175      F3181   1.384       .  S
C3178      F3182   1.385       .  S
C3178      F3183   1.380       .  S
C3178      F3184   1.383       .  S
C3185      C3186   1.410       .  A
C3185      C3190   1.407       .  A
C3185      H3192   1.082       .  S
C3186      C3187   1.425       .  A
C3187      C3194   1.517       .  S
C3187      C3188   1.405       .  A
C3188      C3189   1.397       .  A
C3188      H3193   1.083       .  S
C3189      C3190   1.412       .  A
C3190      C3191   1.520       .  S
C3191      F3195   1.384       .  S
C3191      F3196   1.383       .  S
C3191      F3197   1.382       .  S
C3194      F3198   1.384       .  S
C3194      F3199   1.383       .  S
C3194      F3200   1.385       .  S
C3201      C3202   1.401       .  A
C3201      C3206   1.409       .  A
C3201      H3208   1.084       .  S
C3202      C3203   1.413       .  A
C3203      C3210   1.519       .  S
C3203      C3204   1.407       .  A
C3204      C3205   1.408       .  A
C3204      H3209   1.082       .  S
C3205      C3206   1.422       .  A
C3206      C3207   1.518       .  S
C3207      F3211   1.384       .  S
C3207      F3212   1.383       .  S
C3207      F3213   1.384       .  S
C3210      F3214   1.381       .  S
C3210      F3215   1.383       .  S
C3210      F3216   1.384       .  S
C3217      C3218   1.410       .  A
C3217      C3222   1.409       .  A
C3217      H3224   1.082       .  S
C3218      C3219   1.428       .  A
C3219      C3226   1.519       .  S
C3219      C3220   1.412       .  A
C3220      C3221   1.401       .  A
C3220      H3225   1.083       .  S
C3221      C3222   1.414       .  A
C3222      C3223   1.519       .  S
C3223      F3227   1.385       .  S
C3223      F3228   1.382       .  S
C3223      F3229   1.382       .  S
C3226      F3230   1.383       .  S
C3226      F3231   1.383       .  S
C3226      F3232   1.385       .  S
C3233      C3234   1.410       .  A
C3233      C3238   1.408       .  A
C3233      H3240   1.082       .  S
C3234      C3235   1.426       .  A
C3235      C3242   1.520       .  S
C3235      C3236   1.407       .  A
C3236      C3237   1.397       .  A
C3236      H3241   1.083       .  S
C3237      C3238   1.412       .  A
C3238      C3239   1.521       .  S
C3239      F3243   1.384       .  S
C3239      F3244   1.383       .  S
C3239      F3245   1.382       .  S
C3242      F3246   1.383       .  S
C3242      F3247   1.382       .  S
C3242      F3248   1.385       .  S
C3249      C3250   1.417   1_655  A
C3249      C3254   1.409       .  A
C3249      H3256   1.074       .  S
C3251      C3258   1.521       .  S
C3251      C3252   1.402       .  A
C3252      H3257   1.085       .  S
C3253      C3254   1.413   1_455  A
C3254      C3255   1.522       .  S
C3255      F3259   1.384       .  S
C3255      F3260   1.384       .  S
C3255      F3261   1.382       .  S
C3258      F3262   1.385       .  S
C3258      F3263   1.371       .  S
C3258      F3264   1.383       .  S
C3265      C3266   1.403   1_655  A
C3265      C3270   1.412       .  A
C3265      H3272   1.081       .  S
C3267      C3274   1.515       .  S
C3267      C3268   1.403       .  A
C3268      H3273   1.084       .  S
C3269      C3270   1.423       .  A
C3270      C3271   1.518       .  S
C3271      F3275   1.385       .  S
C3271      F3276   1.383       .  S
C3271      F3277   1.382       .  S
C3274      F3278   1.382       .  S
C3274      F3279   1.381       .  S
C3274      F3280   1.385       .  S
C3281      C3282   1.403       .  A
C3281      C3286   1.411       .  A
C3281      H3288   1.083       .  S
C3282      C3283   1.414       .  A
C3283      C3290   1.520       .  S
C3283      C3284   1.400       .  A
C3284      C3285   1.407       .  A
C3284      H3289   1.084       .  S
C3285      C3286   1.421       .  A
C3286      C3287   1.518       .  S
C3287      F3291   1.385       .  S
C3287      F3292   1.383       .  S
C3287      F3293   1.383       .  S
C3290      F3294   1.382       .  S
C3290      F3295   1.384       .  S
C3290      F3296   1.383       .  S
C3297      C3298   1.403       .  A
C3297      C3302   1.409       .  A
C3297      H3304   1.084       .  S
C3298      C3299   1.422       .  A
C3299      C3306   1.519       .  S
C3299      C3300   1.405       .  A
C3300      C3301   1.398       .  A
C3300      H3305   1.085       .  S
C3301      C3302   1.416       .  A
C3302      C3303   1.518       .  S
C3303      F3307   1.385       .  S
C3303      F3308   1.383       .  S
C3303      F3309   1.383       .  S
C3306      F3310   1.383       .  S
C3306      F3311   1.379       .  S
C3306      F3312   1.384       .  S
C3313      C3314   1.405   1_565  A
C3313      C3318   1.415       .  A
C3313      H3320   1.082       .  S
C3315      C3322   1.522       .  S
C3315      C3316   1.404       .  A
C3316      H3321   1.084       .  S
C3317      C3318   1.422       .  A
C3318      C3319   1.517       .  S
C3319      F3325   1.382       .  S
C3322      F3326   1.381       .  S
C3329      C3330   1.399       .  A
C3329      C3334   1.410       .  A
C3329      H3336   1.083       .  S
C3331      C3338   1.519       .  S
C3331      C3332   1.407       .  A
C3332      H3337   1.081       .  S
C3333      C3334   1.424       .  A
C3334      C3335   1.517       .  S
C3335      F3339   1.379       .  S
C3335      F3340   1.377   1_565  S
C3338      F3343   1.383       .  S
C3338      F3344   1.385       .  S
C3345      C3346   1.398       .  A
C3345      C3350   1.404       .  A
C3345      H3352   1.085       .  S
C3346      C3347   1.407       .  A
C3347      C3354   1.517       .  S
C3347      C3348   1.404       .  A
C3348      C3349   1.414       .  A
C3348      H3353   1.080       .  S
C3349      C3350   1.434       .  A
C3350      C3351   1.526       .  S
C3351      F3355   1.384       .  S
C3351      F3356   1.385       .  S
C3351      F3357   1.380       .  S
C3354      F3358   1.383       .  S
C3354      F3359   1.382       .  S
C3354      F3360   1.385       .  S
C3361      C3362   1.397       .  A
C3361      C3366   1.409       .  A
C3361      H3368   1.083       .  S
C3362      C3363   1.410       .  A
C3363      C3370   1.517       .  S
C3363      C3364   1.405       .  A
C3364      C3365   1.410       .  A
C3364      H3369   1.082       .  S
C3365      C3366   1.427       .  A
C3366      C3367   1.519       .  S
C3367      F3371   1.385       .  S
C3367      F3372   1.383       .  S
C3367      F3373   1.383       .  S
C3370      F3374   1.381       .  S
C3370      F3375   1.383       .  S
C3370      F3376   1.384       .  S
C3377      C3378   1.401       .  A
C3377      C3382   1.406       .  A
C3377      H3384   1.083       .  S
C3378      C3379   1.412       .  A
C3379      C3386   1.518       .  S
C3379      C3380   1.407       .  A
C3380      C3381   1.409       .  A
C3380      H3385   1.082       .  S
C3381      C3382   1.423       .  A
C3382      C3383   1.520       .  S
C3383      F3387   1.385       .  S
C3383      F3388   1.384       .  S
C3383      F3389   1.378       .  S
C3386      F3390   1.383       .  S
C3386      F3391   1.382       .  S
C3386      F3392   1.383       .  S
C3393      C3394   1.399       .  A
C3393      C3398   1.408       .  A
C3393      H3400   1.083       .  S
C3394      C3395   1.412       .  A
C3395      C3402   1.520       .  S
C3395      C3396   1.404       .  A
C3396      C3397   1.409       .  A
C3396      H3401   1.082       .  S
C3397      C3398   1.428       .  A
C3398      C3399   1.521       .  S
C3399      F3403   1.385       .  S
C3399      F3404   1.383       .  S
C3399      F3405   1.383       .  S
C3402      F3406   1.383       .  S
C3402      F3407   1.382       .  S
C3402      F3408   1.385       .  S
C3409      C3410   1.407       .  A
C3409      C3414   1.406       .  A
C3409      H3416   1.082       .  S
C3410      C3411   1.421       .  A
C3411      C3418   1.520       .  S
C3411      C3412   1.407       .  A
C3412      C3413   1.406       .  A
C3412      H3417   1.084       .  S
C3413      C3414   1.422       .  A
C3414      C3415   1.521       .  S
C3415      F3419   1.385       .  S
C3415      F3420   1.381       .  S
C3415      F3421   1.384       .  S
C3418      F3422   1.382       .  S
C3418      F3423   1.382       .  S
C3418      F3424   1.385       .  S
C3425      C3426   1.400       .  A
C3425      C3430   1.410       .  A
C3425      H3432   1.083       .  S
C3426      C3427   1.413       .  A
C3427      C3434   1.520       .  S
C3427      C3428   1.402       .  A
C3428      C3429   1.407       .  A
C3428      H3433   1.082       .  S
C3429      C3430   1.425       .  A
C3430      C3431   1.520       .  S
C3431      F3435   1.384       .  S
C3431      F3436   1.383       .  S
C3431      F3437   1.384       .  S
C3434      F3438   1.383       .  S
C3434      F3439   1.382       .  S
C3434      F3440   1.385       .  S
C3441      C3442   1.404       .  A
C3441      C3446   1.410       .  A
C3441      H3448   1.083       .  S
C3443      C3450   1.518       .  S
C3443      C3444   1.404       .  A
C3444      H3449   1.085       .  S
C3445      C3446   1.417       .  A
C3446      C3447   1.517       .  S
C3447      F3451   1.385       .  S
C3447      F3452   1.383   1_565  S
C3447      F3453   1.383       .  S
C3450      F3454   1.383       .  S
C3450      F3455   1.381       .  S
C3450      F3456   1.384       .  S
C3457      C3462   1.411       .  A
C3457      H3464   1.082       .  S
C3458      C3459   1.415   1_565  A
C3459      C3466   1.518       .  S
C3459      C3460   1.405       .  A
C3460      C3461   1.406   1_545  A
C3460      H3465   1.084       .  S
C3462      C3463   1.519       .  S
C3463      F3467   1.385       .  S
C3463      F3468   1.383       .  S
C3466      F3470   1.381       .  S
C3466      F3471   1.384       .  S
C3466      F3472   1.382       .  S
C3473      C3474   1.399       .  A
C3473      C3478   1.411       .  A
C3473      H3480   1.082       .  S
C3474      C3475   1.415       .  A
C3475      C3482   1.523       .  S
C3475      C3476   1.411       .  A
C3476      C3477   1.419       .  A
C3476      H3481   1.072       .  S
C3477      C3478   1.440       .  A
C3478      C3479   1.527       .  S
C3479      F3483   1.380       .  S
C3479      F3484   1.385       .  S
C3479      F3485   1.375       .  S
C3482      F3486   1.383       .  S
C3482      F3487   1.382       .  S
C3482      F3488   1.385       .  S
C3489      C3490   1.404       .  A
C3489      C3494   1.410       .  A
C3489      H3496   1.083       .  S
C3490      C3491   1.416       .  A
C3491      C3498   1.515       .  S
C3491      C3492   1.402       .  A
C3492      C3493   1.404       .  A
C3492      H3497   1.084       .  S
C3493      C3494   1.419       .  A
C3494      C3495   1.518       .  S
C3495      F3499   1.385       .  S
C3495      F3500   1.382       .  S
C3495      F3501   1.384       .  S
C3498      F3502   1.380       .  S
C3498      F3503   1.385       .  S
C3498      F3504   1.380       .  S
