geometry optimzed in LAMMPS
_audit_creation_date              2020-12-01 
_audit_creation_method            'lammps2cif' 
_symmetry_space_group_name_H-M    'P1' 
_symmetry_Int_Tables_number       1 
_symmetry_cell_setting            triclinic 
loop_ 
_symmetry_equiv_pos_as_xyz 
  x,y,z 
_cell_length_a                    49.61105865 
_cell_length_b                    49.740249380412514 
_cell_length_c                    39.02584517602001 
_cell_angle_alpha                 90.66245085271096 
_cell_angle_beta                  89.62065664336075 
_cell_angle_gamma                 116.8670350441359 
loop_ 
_atom_site_label 
_atom_site_type_symbol 
_atom_site_fract_x 
_atom_site_fract_y 
_atom_site_fract_z 
_atom_site_charge 
N1          N  0.70642861  0.75689282  0.13475147    -0.27300
N2          N  0.67728645  0.74230380  0.12754549    -0.35200
C3          C  0.66827393  0.76172072  0.11429549     0.01000
C4          C  0.69290517  0.78997574  0.11300808     0.07000
C5          C  0.71673628  0.78597286  0.12609408    -0.06100
H6          H  0.64533283  0.75563176  0.10652793     0.07700
H7          H  0.73968445  0.80309127  0.13020534     0.08900
Cu8        Cu  0.65028828  0.69702853  0.13713556     0.44200
Cu9        Cu  0.73072481  0.73736472  0.15796918     0.42000
Cu10       Cu  0.68783405  0.65772497  0.17484597     0.43900
N11         N  0.62821551  0.65185455  0.14988231    -0.34700
N12         N  0.64218892  0.63730572  0.16325139    -0.29000
C13         C  0.62194470  0.60857780  0.16889863    -0.05100
C14         C  0.59370480  0.60480467  0.15874682     0.07100
C15         C  0.59863100  0.63282318  0.14681421     0.00900
H16         H  0.62739274  0.59193449  0.18032139     0.08600
H17         H  0.58204018  0.63901059  0.13652753     0.07700
N18         N  0.73287980  0.68294452  0.18781301    -0.36200
N19         N  0.74868354  0.71209236  0.18208157    -0.28400
C20         C  0.77681922  0.72147859  0.19444683    -0.03600
C21         C  0.77887038  0.69697844  0.20862011     0.05000
C22         C  0.75044142  0.67298435  0.20385423     0.03100
H23         H  0.79443816  0.74442995  0.19295497     0.08200
H24         H  0.74270747  0.64991930  0.21181306     0.07000
N25         N  0.73465849  0.00015887  0.53509380    -0.27300
N26         N  0.70645576  0.98965187  0.04581741    -0.35200
C27         C  0.69756983  0.96212785  0.05901117     0.01000
C28         C  0.72131399  0.95469706  0.05643749     0.07000
C29         C  0.74452908  0.97953984  0.04119908    -0.06100
H30         H  0.67519023  0.94848328  0.06910789     0.07700
H31         H  0.76666114  0.98219407  0.03395631     0.08900
Cu32       Cu  0.68042960  0.01203283  0.53978232     0.44200
Cu33       Cu  0.75718856  0.04088996  0.51011430     0.42000
Cu34       Cu  0.71281909  0.08107876  0.49219530     0.43900
N35         N  0.65714420  0.03622223  0.52801183    -0.34700
N36         N  0.66892156  0.06168964  0.51076650    -0.29000
C37         C  0.64745048  0.07072081  0.50584628    -0.05100
C38         C  0.62076618  0.04969518  0.52042452     0.07100
C39         C  0.62788123  0.02821268  0.53432964     0.00900
H40         H  0.65070329  0.09033489  0.49128188     0.08600
H41         H  0.61280176  0.00782742  0.54741170     0.07700
N42         N  0.75696023  0.09496197  0.47598673    -0.36200
N43         N  0.77309213  0.08058844  0.48275203    -0.28400
C44         C  0.80078922  0.09584595  0.46909760    -0.03600
C45         C  0.80232485  0.12118047  0.45285841     0.05000
C46         C  0.77395580  0.11971790  0.45779504     0.03100
H47         H  0.81850307  0.08900548  0.47137722     0.08200
H48         H  0.76606598  0.13548633  0.44914588     0.07000
N49         N  0.06629660  0.32907590  0.30839309    -0.27300
N50         N  0.08235072  0.35866561  0.30730435    -0.35200
C51         C  0.10958273  0.36547013  0.29383866     0.01000
C52         C  0.11096914  0.33889796  0.28574407     0.07000
C53         C  0.08300909  0.31622099  0.29554687    -0.06100
H54         H  0.12679315  0.38828160  0.28985742     0.07700
H55         H  0.07500361  0.29216150  0.29284456     0.08900
Cu56       Cu  0.06638882  0.38915992  0.32100306     0.44200
Cu57       Cu  0.02200252  0.30814585  0.32585951     0.42000
Cu58       Cu  0.98773109  0.35878490  0.34057105     0.43900
N59         N  0.04484356  0.41581722  0.32943534    -0.34700
N60         N  0.01561682  0.40458321  0.33575730    -0.29000
C61         C  0.00817859  0.42734334  0.33891716    -0.05100
C62         C  0.03405504  0.45437521  0.33439762     0.07100
C63         C  0.05686727  0.44603764  0.32844596     0.00900
H64         H  0.98558732  0.42427270  0.34444006     0.08600
H65         H  0.08041289  0.46070051  0.32317307     0.07700
N66         N  0.96593292  0.31272760  0.34893386    -0.36200
N67         N  0.97842169  0.29446321  0.34413861    -0.28400
C68         C  0.95874931  0.26655035  0.35388208    -0.03600
C69         C  0.93251426  0.26717534  0.36538433     0.05000
C70         C  0.93798555  0.29690841  0.36175390     0.03100
H71         H  0.96345067  0.24734865  0.35280307     0.08200
H72         H  0.92319969  0.30669729  0.36885151     0.07000
N73         N  0.34066702  0.28751774  0.15073184    -0.27300
N74         N  0.37049770  0.30146082  0.14948714    -0.35200
C75         C  0.38063634  0.28180185  0.13925482     0.01000
C76         C  0.35604353  0.25397747  0.13364328     0.07000
C77         C  0.33102652  0.25853843  0.14120889    -0.06100
H78         H  0.40425283  0.28773864  0.13537065     0.07700
H79         H  0.30750883  0.24212927  0.13987531     0.08900
Cu80       Cu  0.39657846  0.34693046  0.15957107     0.44200
Cu81       Cu  0.31460886  0.30883178  0.16465932     0.42000
Cu82       Cu  0.35671024  0.39026117  0.17620515     0.43900
N83         N  0.41799474  0.39327894  0.16604511    -0.34700
N84         N  0.40328584  0.40937417  0.17154798    -0.29000
C85         C  0.42327437  0.43870335  0.17343039    -0.05100
C86         C  0.45213358  0.44129089  0.16886760     0.07100
C87         C  0.44775221  0.41187191  0.16429117     0.00900
H88         H  0.41706939  0.45667975  0.17785074     0.08600
H89         H  0.46475686  0.40438019  0.15932198     0.07700
N90         N  0.31052552  0.36582061  0.18351015    -0.36200
N91         N  0.29516146  0.33626480  0.17982580    -0.28400
C92         C  0.26617691  0.32766541  0.18868649    -0.03600
C93         C  0.26310276  0.35306707  0.19840091     0.05000
C94         C  0.29177863  0.37680445  0.19466965     0.03100
H95         H  0.24881522  0.30454072  0.18844855     0.08200
H96         H  0.29894447  0.40030809  0.20078714     0.07000
N97         N  0.32530648  0.05208094  0.53194479    -0.27300
N98         N  0.35503342  0.06722100  0.03336874    -0.35200
C99         C  0.36282182  0.09491757  0.04605275     0.01000
C100        C  0.33672772  0.09760346  0.05316137     0.07000
C101        C  0.31330583  0.06988660  0.04372724    -0.06100
H102        H  0.38594543  0.11170228  0.04980655     0.07700
H103        H  0.28931357  0.06289901  0.04573259     0.08900
Cu104      Cu  0.38416082  0.04962996  0.51988733     0.44200
Cu105      Cu  0.30314150  0.00769519  0.51466513     0.42000
Cu106      Cu  0.35184170  0.97156959  0.49598573     0.43900
N107        N  0.40967189  0.02711546  0.51071990    -0.34700
N108        N  0.39791424  0.99818961  0.50266236    -0.29000
C109        C  0.42027132  0.98999712  0.50059166    -0.05100
C110        C  0.44747006  0.01507153  0.50769853     0.07100
C111        C  0.43974181  0.03818309  0.51390686     0.00900
H112        H  0.41682912  0.96738251  0.49462495     0.08600
H113        H  0.45462995  0.06115139  0.52143968     0.07700
N114        N  0.30535154  0.95107898  0.48884728    -0.36200
N115        N  0.28779541  0.96411995  0.49537962    -0.28400
C116        C  0.25933159  0.94522846  0.48606503    -0.03600
C117        C  0.25880898  0.91893871  0.47292204     0.05000
C118        C  0.28850149  0.92356895  0.47527200     0.03100
H119        H  0.24059238  0.95063732  0.48825418     0.08200
H120        H  0.29759508  0.90857209  0.46668405     0.07000
N121        N  0.97828772  0.72839129  0.31678870    -0.27300
N122        N  0.96488326  0.69909691  0.31057994    -0.35200
C123        C  0.93752918  0.69124278  0.29701805     0.01000
C124        C  0.93320520  0.71682971  0.29439557     0.07000
C125        C  0.95969550  0.74002229  0.30725795    -0.06100
H126        H  0.92230591  0.66850984  0.28911534     0.07700
H127        H  0.96524358  0.76363863  0.30943699     0.08900
Cu128      Cu  0.98444337  0.67089644  0.31950517     0.44200
Cu129      Cu  0.02149810  0.75042243  0.33740245     0.42000
Cu130      Cu  0.06061561  0.70349145  0.35030519     0.43900
N131        N  0.00763784  0.64603060  0.32841636    -0.34700
N132        N  0.03584619  0.65782053  0.33928391    -0.29000
C133        C  0.04403942  0.63560006  0.34270466    -0.05100
C134        C  0.01966835  0.60841344  0.33365592     0.07100
C135        C  0.99706189  0.61611229  0.32467806     0.00900
H136        H  0.06590607  0.63901494  0.35180986     0.08600
H137        H  0.97448989  0.60120615  0.31595882     0.07700
N138        N  0.07841915  0.74898436  0.36303576    -0.36200
N139        N  0.06431765  0.76577625  0.35866562    -0.28400
C140        C  0.08172075  0.79361966  0.37110716    -0.03600
C141        C  0.10813568  0.79455552  0.38406563     0.05000
C142        C  0.10512933  0.76573529  0.37833550     0.03100
H143        H  0.07528813  0.81167996  0.37089582     0.08200
H144        H  0.12077675  0.75713210  0.38542352     0.07000
C145        C  0.13353213  0.82035723  0.40127107    -0.05300
C146        C  0.13112677  0.84677343  0.40974988    -0.05200
C147        C  0.15488918  0.87104606  0.42595149    -0.23400
C148        C  0.18161284  0.86946671  0.43401945     0.18800
C149        C  0.18433223  0.84308217  0.42580253     0.16000
C150        C  0.16036650  0.81876162  0.40953263    -0.18400
C151        C  0.21106662  0.84150792  0.43383918    -0.20200
C152        C  0.23501931  0.86597173  0.44951593    -0.12800
C153        C  0.23277922  0.89255199  0.45751016     0.03900
C154        C  0.20573667  0.89394455  0.44986877    -0.24900
H155        H  0.11082794  0.84880716  0.40408582     0.08900
H156        H  0.15236512  0.89108264  0.43211094     0.12600
H157        H  0.16288332  0.79879620  0.40313501     0.12500
H158        H  0.21352490  0.82140608  0.42785901     0.12200
H159        H  0.25529493  0.86392861  0.45532882     0.12800
H160        H  0.20349471  0.91417489  0.45559806     0.14700
C161        C  0.33472150  0.12426669  0.06805762    -0.05300
C162        C  0.30726317  0.12614040  0.06819911    -0.05200
C163        C  0.30571269  0.15162189  0.08162243    -0.23400
C164        C  0.33159616  0.17572091  0.09515838     0.18800
C165        C  0.35918718  0.17391393  0.09545507     0.16000
C166        C  0.36054999  0.14830008  0.08207527    -0.18400
C167        C  0.38511599  0.19786062  0.10892917    -0.20200
C168        C  0.38388333  0.22360910  0.12159707    -0.12800
C169        C  0.35668975  0.22597763  0.12113349     0.03900
C170        C  0.33047298  0.20169078  0.10808932    -0.24900
H171        H  0.28700413  0.10813935  0.55752742     0.08900
H172        H  0.28432255  0.15256618  0.08117473     0.12600
H173        H  0.38185886  0.14726288  0.08273306     0.12500
H174        H  0.40643464  0.19676636  0.10949817     0.12200
H175        H  0.40436165  0.24161785  0.13185892     0.12800
H176        H  0.30934108  0.20311065  0.10734852     0.14700
C177        C  0.01763424  0.57766822  0.33406378    -0.05300
C178        C  0.98927861  0.55217891  0.33191314    -0.05200
C179        C  0.98694890  0.52315740  0.33185681    -0.23400
C180        C  0.01292591  0.51892317  0.33391664     0.18800
C181        C  0.04158363  0.54422816  0.33625487     0.16000
C182        C  0.04377990  0.57343389  0.33641969    -0.18400
C183        C  0.06753281  0.53984025  0.33817445    -0.20200
C184        C  0.06509037  0.51069307  0.33762649    -0.12800
C185        C  0.03665137  0.48533007  0.33525225     0.03900
C186        C  0.01063428  0.48975724  0.33349760    -0.24900
H187        H  0.96866638  0.55448819  0.33051915     0.08900
H188        H  0.96478031  0.50400449  0.33015497     0.12600
H189        H  0.06583441  0.59273274  0.33790587     0.12500
H190        H  0.08972206  0.55893693  0.34004121     0.12200
H191        H  0.08555423  0.50811739  0.33931945     0.12800
H192        H  0.98854166  0.47060740  0.33132334     0.14700
C193        C  0.13648950  0.33584688  0.26906998    -0.05300
C194        C  0.13654753  0.30764803  0.26612101    -0.05200
C195        C  0.16093918  0.30512162  0.25087301    -0.23400
C196        C  0.18575506  0.33075388  0.23832950     0.18800
C197        C  0.18573212  0.35907829  0.24081877     0.16000
C198        C  0.16120879  0.36141609  0.25597581    -0.18400
C199        C  0.21038712  0.38478010  0.22837960    -0.20200
C200        C  0.23517733  0.38260012  0.21414884    -0.12800
C201        C  0.23585071  0.35467142  0.21197618     0.03900
C202        C  0.21075420  0.32867635  0.22378253    -0.24900
H203        H  0.11793705  0.28750762  0.27589889     0.08900
H204        H  0.16050312  0.28317221  0.24917016     0.12600
H205        H  0.16162129  0.38331947  0.25746780     0.12500
H206        H  0.21063269  0.40665512  0.22992400     0.12200
H207        H  0.25383656  0.40294840  0.20486370     0.12800
H208        H  0.21086911  0.30697496  0.22246869     0.14700
C209        C  0.59052490  0.04862590  0.51844032    -0.05300
C210        C  0.58749214  0.07510201  0.51383196    -0.05200
C211        C  0.55887168  0.07388503  0.51106756    -0.23400
C212        C  0.53282364  0.04611350  0.51246624     0.18800
C213        C  0.53568081  0.01938275  0.51696986     0.16000
C214        C  0.56442172  0.02083505  0.52020824    -0.18400
C215        C  0.50974766  0.99156328  0.51783726    -0.20200
C216        C  0.48116202  0.99018333  0.51439203    -0.12800
C217        C  0.47793335  0.01661124  0.51025759     0.03900
C218        C  0.50399582  0.04457562  0.50926647    -0.24900
H219        H  0.60724980  0.09679355  0.51257615     0.08900
H220        H  0.55712113  0.09462882  0.50763376     0.12600
H221        H  0.56639867  0.00017544  0.52324025     0.12500
H222        H  0.51156074  0.97084476  0.52121513     0.12200
H223        H  0.46157993  0.96838200  0.51555169     0.12800
H224        H  0.50196932  0.06514745  0.50567587     0.14700
C225        C  0.90513910  0.24197401  0.37984766    -0.05300
C226        C  0.87819326  0.24454888  0.38378518    -0.05200
C227        C  0.85255537  0.22117502  0.39809793    -0.23400
C228        C  0.85337358  0.19477858  0.40886381     0.18800
C229        C  0.88019539  0.19179000  0.40480052     0.16000
C230        C  0.90584113  0.21531340  0.39028846    -0.18400
C231        C  0.88102315  0.16542489  0.41563469    -0.20200
C232        C  0.85563212  0.14238139  0.43077831    -0.12800
C233        C  0.82886432  0.14520609  0.43543233     0.03900
C234        C  0.82791524  0.17150813  0.42399178    -0.24900
H235        H  0.87676318  0.26459048  0.37568991     0.08900
H236        H  0.83214563  0.22382558  0.40091129     0.12600
H237        H  0.92640242  0.21294693  0.38776215     0.12500
H238        H  0.90137376  0.16269563  0.41262107     0.12200
H239        H  0.85719073  0.12243324  0.43892611     0.12800
H240        H  0.80765513  0.17428995  0.42726549     0.14700
C241        C  0.56459758  0.57701456  0.16078444    -0.05300
C242        C  0.53702102  0.57860750  0.16010387    -0.05200
C243        C  0.50955879  0.55245209  0.16207997    -0.23400
C244        C  0.50914019  0.52416948  0.16455395     0.18800
C245        C  0.53669815  0.52228721  0.16522524     0.16000
C246        C  0.56419311  0.54865879  0.16346885    -0.18400
C247        C  0.53630842  0.49402792  0.16745172    -0.20200
C248        C  0.50887629  0.46783236  0.16882845    -0.12800
C249        C  0.48122573  0.46931653  0.16806636     0.03900
C250        C  0.48163741  0.49775196  0.16609399    -0.24900
H251        H  0.53659809  0.60011139  0.15841428     0.08900
H252        H  0.48865152  0.55435200  0.16159554     0.12600
H253        H  0.58520509  0.54697223  0.16367574     0.12500
H254        H  0.55723059  0.49215880  0.16804354     0.12200
H255        H  0.50947712  0.44643537  0.17064800     0.12800
H256        H  0.46066909  0.49946527  0.16522223     0.14700
C257        C  0.80541595  0.69617024  0.22513490    -0.05300
C258        C  0.80517903  0.66831526  0.23171749    -0.05200
C259        C  0.82984684  0.66701901  0.24707548    -0.23400
C260        C  0.85541270  0.69355516  0.25614542     0.18800
C261        C  0.85609848  0.72175383  0.24988782     0.16000
C262        C  0.83110199  0.72292394  0.23442006    -0.18400
C263        C  0.88184450  0.74822429  0.25910244    -0.20200
C264        C  0.90677085  0.74671129  0.27390373    -0.12800
C265        C  0.90643956  0.71869936  0.27983932     0.03900
C266        C  0.88036599  0.69220554  0.27111603    -0.24900
H267        H  0.78605346  0.64729560  0.22468672     0.08900
H268        H  0.82898758  0.64520096  0.25164132     0.12600
H269        H  0.83169923  0.74460890  0.22981796     0.12500
H270        H  0.88281815  0.77009728  0.25460505     0.12200
H271        H  0.92639542  0.76755917  0.28026189     0.12800
H272        H  0.87928485  0.67035401  0.27577225     0.14700
C273        C  0.69321708  0.81857246  0.10225349    -0.05300
C274        C  0.66628208  0.82140456  0.10187949    -0.05200
C275        C  0.66650630  0.84858237  0.09291064    -0.23400
C276        C  0.69365897  0.87342184  0.08396296     0.18800
C277        C  0.72083434  0.87078878  0.08380764     0.16000
C278        C  0.72046775  0.84342130  0.09300747    -0.18400
C279        C  0.74791487  0.89562338  0.07458381    -0.20200
C280        C  0.74809184  0.92286648  0.06578071    -0.12800
C281        C  0.72119394  0.92582978  0.06603574     0.03900
C282        C  0.69401246  0.90082441  0.07518322    -0.24900
H283        H  0.64501205  0.80279259  0.10917432     0.08900
H284        H  0.64545121  0.85021219  0.09316357     0.12600
H285        H  0.74136124  0.84149005  0.09280139     0.12500
H286        H  0.76898167  0.89401854  0.07427246     0.12200
H287        H  0.76942168  0.94163252  0.55903244     0.12800
H288        H  0.67296061  0.90238802  0.07525140     0.14700
N289        N  0.70642486  0.75690353  0.63476489    -0.27300
N290        N  0.67728216  0.74231525  0.62756126    -0.35200
C291        C  0.66826946  0.76173310  0.61431365     0.01000
C292        C  0.69290125  0.78998795  0.61302512     0.07000
C293        C  0.71673273  0.78598384  0.62610816    -0.06100
H294        H  0.64532821  0.75564486  0.60654784     0.07700
H295        H  0.73968135  0.80310141  0.63021739     0.08900
Cu296      Cu  0.65028461  0.69703863  0.63714877     0.44200
Cu297      Cu  0.73072255  0.73737397  0.65797769     0.42000
Cu298      Cu  0.68783621  0.65773098  0.67483802     0.43900
N299        N  0.62821455  0.65186193  0.64988726    -0.34700
N300        N  0.64219023  0.63731185  0.66324775    -0.29000
C301        C  0.62194749  0.60858268  0.66889170    -0.05100
C302        C  0.59370604  0.60480997  0.65874688     0.07100
C303        C  0.59862983  0.63283002  0.64682161     0.00900
H304        H  0.62739743  0.59193851  0.68030824     0.08600
H305        H  0.58203732  0.63901818  0.63654231     0.07700
N306        N  0.73288192  0.68295014  0.68780551    -0.36200
N307        N  0.74868394  0.71209959  0.68208186    -0.28400
C308        C  0.77682010  0.72148484  0.69444568    -0.03600
C309        C  0.77887313  0.69698213  0.70860844     0.05000
C310        C  0.75044527  0.67298782  0.70383927     0.03100
H311        H  0.79443897  0.74443659  0.69295822     0.08200
H312        H  0.74271378  0.64992142  0.71179169     0.07000
N313        N  0.73465096  0.00014158  0.03507719    -0.27300
N314        N  0.70646341  0.98967073  0.54583398    -0.35200
C315        C  0.69757563  0.96214656  0.55902841     0.01000
C316        C  0.72131839  0.95471370  0.55645547     0.07000
C317        C  0.74453468  0.97955565  0.54121660    -0.06100
H318        H  0.67519576  0.94850328  0.56912508     0.07700
H319        H  0.76666620  0.98220827  0.53397436     0.08900
Cu320      Cu  0.68041962  0.01201187  0.03976650     0.44200
Cu321      Cu  0.75717873  0.04087164  0.01009798     0.42000
Cu322      Cu  0.71280747  0.08105491  0.99217121     0.43900
N323        N  0.65713467  0.03620212  0.02799638    -0.34700
N324        N  0.66891165  0.06166796  0.01074798    -0.29000
C325        C  0.64744159  0.07070077  0.00582998    -0.05100
C326        C  0.62075817  0.04967822  0.02041290     0.07100
C327        C  0.62787282  0.02819548  0.03431836     0.00900
H328        H  0.65069451  0.09031429  0.99126413     0.08600
H329        H  0.61279366  0.00781186  0.04740389     0.07700
N330        N  0.75694939  0.09493983  0.97596427    -0.36200
N331        N  0.77308173  0.08056768  0.98273371    -0.28400
C332        C  0.80078042  0.09582659  0.96908456    -0.03600
C333        C  0.80231731  0.12116108  0.95284444     0.05000
C334        C  0.77394669  0.11969663  0.95777477     0.03100
H335        H  0.81849482  0.08898721  0.97136971     0.08200
H336        H  0.76605778  0.13546591  0.94912552     0.07000
N337        N  0.06630745  0.32907139  0.80843505    -0.27300
N338        N  0.08235646  0.35866093  0.80732746    -0.35200
C339        C  0.10958690  0.36546391  0.79385814     0.01000
C340        C  0.11097734  0.33889070  0.78578103     0.07000
C341        C  0.08302166  0.31621487  0.79559790    -0.06100
H342        H  0.12679372  0.38827459  0.78986321     0.07700
H343        H  0.07502002  0.29215483  0.79291025     0.08900
Cu344      Cu  0.06638859  0.38915470  0.82100740     0.44200
Cu345      Cu  0.02201649  0.30814417  0.82591040     0.42000
Cu346      Cu  0.98773028  0.35877732  0.84058032     0.43900
N347        N  0.04483961  0.41581005  0.82942977    -0.34700
N348        N  0.01561312  0.40457542  0.83575384    -0.29000
C349        C  0.00817375  0.42733505  0.83891029    -0.05100
C350        C  0.03404910  0.45436726  0.83438656     0.07100
C351        C  0.05686179  0.44603016  0.82843561     0.00900
H352        H  0.98558256  0.42426388  0.84443556     0.08600
H353        H  0.08040737  0.46069325  0.82316219     0.07700
N354        N  0.96593785  0.31272179  0.84895825    -0.36200
N355        N  0.97843291  0.29446092  0.84417945    -0.28400
C356        C  0.95876202  0.26654845  0.85392517    -0.03600
C357        C  0.93252110  0.26716964  0.86541118     0.05000
C358        C  0.93798733  0.29690021  0.86176953     0.03100
H359        H  0.96346734  0.24734904  0.85285590     0.08200
H360        H  0.92319488  0.30668534  0.86885171     0.07000
N361        N  0.34067664  0.28752084  0.65074083    -0.27300
N362        N  0.37050706  0.30146640  0.64949155    -0.35200
C363        C  0.38064732  0.28181012  0.63925353     0.01000
C364        C  0.35605553  0.25398511  0.63364292     0.07000
C365        C  0.33103760  0.25854251  0.64121489    -0.06100
H366        H  0.40426360  0.28774881  0.63536512     0.07700
H367        H  0.30752052  0.24213145  0.63988457     0.08900
Cu368      Cu  0.39658428  0.34693541  0.65957795     0.44200
Cu369      Cu  0.31461717  0.30883018  0.66468004     0.42000
Cu370      Cu  0.35671315  0.39026112  0.67622799     0.43900
N371        N  0.41799826  0.39328295  0.66605509    -0.34700
N372        N  0.40328910  0.40937705  0.67156395    -0.29000
C373        C  0.42327742  0.43870654  0.67344633    -0.05100
C374        C  0.45213654  0.44129490  0.66887709     0.07100
C375        C  0.44775536  0.41187638  0.66429702     0.00900
H376        H  0.41707253  0.45668223  0.67787048     0.08600
H377        H  0.46475932  0.40438528  0.65932243     0.07700
N378        N  0.31052886  0.36581531  0.68353781    -0.36200
N379        N  0.29516761  0.33625906  0.67985442    -0.28400
C380        C  0.26618280  0.32765615  0.68871710    -0.03600
C381        C  0.26310553  0.35305606  0.69843052     0.05000
C382        C  0.29177944  0.37679610  0.69469778     0.03100
H383        H  0.24882247  0.30453101  0.68847854     0.08200
H384        H  0.29894144  0.40029921  0.70081369     0.07000
N385        N  0.32529494  0.05206801  0.03195534    -0.27300
N386        N  0.35504483  0.06723008  0.53336568    -0.35200
C387        C  0.36283501  0.09492697  0.54604972     0.01000
C388        C  0.33674182  0.09761681  0.55315030     0.07000
C389        C  0.31331884  0.06990218  0.54371174    -0.06100
H390        H  0.38595875  0.11170891  0.54980883     0.07700
H391        H  0.28932698  0.06291783  0.54571080     0.08900
Cu392      Cu  0.38415369  0.04962714  0.01988202     0.44200
Cu393      Cu  0.30313136  0.00768076  0.01467859     0.42000
Cu394      Cu  0.35183690  0.97156461  0.99599160     0.43900
N395        N  0.40966736  0.02711468  0.01071285    -0.34700
N396        N  0.39790943  0.99818782  0.00266014    -0.29000
C397        C  0.42026619  0.98999502  0.00059033    -0.05100
C398        C  0.44746539  0.01506997  0.00769302     0.07100
C399        C  0.43973777  0.03818269  0.01389738     0.00900
H400        H  0.41682323  0.96737936  0.99462836     0.08600
H401        H  0.45462662  0.06115151  0.02142747     0.07700
N402        N  0.30534672  0.95106838  0.98885632    -0.36200
N403        N  0.28778805  0.96410596  0.99539131    -0.28400
C404        C  0.25932535  0.94521329  0.98607390    -0.03600
C405        C  0.25880636  0.91892651  0.97292575     0.05000
C406        C  0.28849972  0.92355956  0.97527647     0.03100
H407        H  0.24058491  0.95062029  0.98826246     0.08200
H408        H  0.29759634  0.90856644  0.96668412     0.07000
N409        N  0.97827956  0.72838407  0.81680114    -0.27300
N410        N  0.96486936  0.69908716  0.81060940    -0.35200
C411        C  0.93751281  0.69123134  0.79705360     0.01000
C412        C  0.93319274  0.71681984  0.79441656     0.07000
C413        C  0.95968841  0.74001486  0.80726567    -0.06100
H414        H  0.92228518  0.66849521  0.78916604     0.07700
H415        H  0.96524286  0.76363364  0.80942884     0.08900
Cu416      Cu  0.98442772  0.67088622  0.81954230     0.44200
Cu417      Cu  0.02149789  0.75041885  0.83739424     0.42000
Cu418      Cu  0.06061759  0.70348796  0.85028705     0.43900
N419        N  0.00762537  0.64602134  0.82844181    -0.34700
N420        N  0.03584030  0.65781363  0.83928750    -0.29000
C421        C  0.04403513  0.63559366  0.84270149    -0.05100
C422        C  0.01965852  0.60840487  0.83367099     0.07100
C423        C  0.99704697  0.61610215  0.82471119     0.00900
H424        H  0.06590778  0.63901083  0.85178835     0.08600
H425        H  0.97446988  0.60119435  0.81600761     0.07700
N426        N  0.07842637  0.74898352  0.86300730    -0.36200
N427        N  0.06432394  0.76577512  0.85864132    -0.28400
C428        C  0.08172894  0.79361901  0.87108034    -0.03600
C429        C  0.10814593  0.79455550  0.88403310     0.05000
C430        C  0.10513906  0.76573527  0.87830165     0.03100
H431        H  0.07529512  0.81167860  0.87087385     0.08200
H432        H  0.12078674  0.75713190  0.88538851     0.07000
C433        C  0.13354144  0.82035560  0.90124203    -0.05300
C434        C  0.13113173  0.84676730  0.90973309    -0.05200
C435        C  0.15489113  0.87103665  0.92594283    -0.23400
C436        C  0.18161614  0.86945867  0.93400689     0.18800
C437        C  0.18434061  0.84307920  0.92577630     0.16000
C438        C  0.16037789  0.81876188  0.90949785    -0.18400
C439        C  0.21107656  0.84150663  0.93380917    -0.20200
C440        C  0.23502557  0.86596694  0.94949611    -0.12800
C441        C  0.23278019  0.89254222  0.95750427     0.03900
C442        C  0.20573618  0.89393293  0.94986621    -0.24900
H443        H  0.11083131  0.84879948  0.90407362     0.08900
H444        H  0.15236334  0.89106959  0.93211251     0.12600
H445        H  0.16289809  0.79879996  0.90309015     0.12500
H446        H  0.21353886  0.82140856  0.92781845     0.12200
H447        H  0.25530239  0.86392516  0.95530555     0.12800
H448        H  0.20348995  0.91415936  0.95560614     0.14700
C449        C  0.33473683  0.12428118  0.56804397    -0.05300
C450        C  0.30728058  0.12615889  0.56817584    -0.05200
C451        C  0.30573043  0.15164048  0.58159875    -0.23400
C452        C  0.33161201  0.17573542  0.59514380     0.18800
C453        C  0.35920125  0.17392502  0.59544897     0.16000
C454        C  0.36056386  0.14831101  0.58206940    -0.18400
C455        C  0.38512823  0.19786828  0.60893174    -0.20200
C456        C  0.38389527  0.22361635  0.62160076    -0.12800
C457        C  0.35670308  0.22598722  0.62112989     0.03900
C458        C  0.33048843  0.20170445  0.60807610    -0.24900
H459        H  0.28698508  0.10811769  0.05755732     0.08900
H460        H  0.28434189  0.15258781  0.58114415     0.12600
H461        H  0.38187083  0.14727058  0.58273404     0.12500
H462        H  0.40644552  0.19677147  0.60950707     0.12200
H463        H  0.40437162  0.24162255  0.63186998     0.12800
H464        H  0.30935815  0.20312699  0.60732911     0.14700
C465        C  0.01762521  0.57765966  0.83407570    -0.05300
C466        C  0.98926920  0.55216977  0.83193499    -0.05200
C467        C  0.98694008  0.52314841  0.83187482    -0.23400
C468        C  0.01291809  0.51891470  0.83392125     0.18800
C469        C  0.04157622  0.54422013  0.83624970     0.16000
C470        C  0.04377196  0.57342575  0.83641798    -0.18400
C471        C  0.06752630  0.53983278  0.83815652    -0.20200
C472        C  0.06508437  0.51068580  0.83760612    -0.12800
C473        C  0.03664492  0.48532216  0.83524169     0.03900
C474        C  0.01062692  0.48974884  0.83349907    -0.24900
H475        H  0.96865610  0.55447836  0.83055137     0.08900
H476        H  0.96477118  0.50399527  0.83018069     0.12600
H477        H  0.06582684  0.59272477  0.83789658     0.12500
H478        H  0.08971601  0.55892986  0.84001565     0.12200
H479        H  0.08554916  0.50811100  0.83928966     0.12800
H480        H  0.98853384  0.47059879  0.83133280     0.14700
C481        C  0.13649751  0.33583744  0.76910992    -0.05300
C482        C  0.13656915  0.30764289  0.76619577    -0.05200
C483        C  0.16096217  0.30511563  0.75095234    -0.23400
C484        C  0.18576572  0.33074309  0.73837890     0.18800
C485        C  0.18572852  0.35906271  0.74083302     0.16000
C486        C  0.16120361  0.36140102  0.75598495    -0.18400
C487        C  0.21037146  0.38475998  0.72836500    -0.20200
C488        C  0.23516418  0.38258082  0.71414041    -0.12800
C489        C  0.23585128  0.35465748  0.71200164     0.03900
C490        C  0.21076683  0.32866601  0.72383665    -0.24900
H491        H  0.11796877  0.28750711  0.77599844     0.08900
H492        H  0.16053718  0.28317025  0.74927695     0.12600
H493        H  0.16160443  0.38330001  0.75744904     0.12500
H494        H  0.21060590  0.40663081  0.72988246     0.12200
H495        H  0.25381446  0.40292507  0.70483221     0.12800
H496        H  0.21089380  0.30696956  0.72254941     0.14700
C497        C  0.59051791  0.04861218  0.01843222    -0.05300
C498        C  0.58748796  0.07508904  0.01381643    -0.05200
C499        C  0.55886870  0.07387501  0.01105210    -0.23400
C500        C  0.53281877  0.04610557  0.01245841     0.18800
C501        C  0.53567299  0.01937414  0.01697070     0.16000
C502        C  0.56441282  0.02082359  0.02020912    -0.18400
C503        C  0.50973801  0.99155658  0.01784580    -0.20200
C504        C  0.48115358  0.99017912  0.01439875    -0.12800
C505        C  0.47792777  0.01660771  0.01025498     0.03900
C506        C  0.50399197  0.04457038  0.00925722    -0.24900
H507        H  0.60724704  0.09677909  0.01255393     0.08900
H508        H  0.55712057  0.09461928  0.00761179     0.12600
H509        H  0.56638727  0.00016334  0.02324731     0.12500
H510        H  0.51154870  0.97083759  0.02123060     0.12200
H511        H  0.46157018  0.96837919  0.01556421     0.12800
H512        H  0.50196745  0.06514235  0.00565997     0.14700
C513        C  0.90514317  0.24196552  0.87986484    -0.05300
C514        C  0.87818963  0.24453010  0.88377344    -0.05200
C515        C  0.85254773  0.22115143  0.89807334    -0.23400
C516        C  0.85336996  0.19476094  0.90885536     0.18800
C517        C  0.88020020  0.19178349  0.90482185     0.16000
C518        C  0.90584974  0.21531138  0.89032267    -0.18400
C519        C  0.88103236  0.16542472  0.91567201    -0.20200
C520        C  0.85563719  0.14237664  0.93080281    -0.12800
C521        C  0.82886069  0.14519029  0.93542811     0.03900
C522        C  0.82790729  0.17148566  0.92397045    -0.24900
H523        H  0.87675670  0.26456677  0.87566451     0.08900
H524        H  0.83213166  0.22379355  0.90086396     0.12600
H525        H  0.92641706  0.21295338  0.88781913     0.12500
H526        H  0.90138957  0.16270414  0.91268118     0.12200
H527        H  0.85720014  0.12243426  0.93896464     0.12800
H528        H  0.80764019  0.17425856  0.92722062     0.14700
C529        C  0.56459926  0.57701935  0.66078655    -0.05300
C530        C  0.53702249  0.57861233  0.66011694    -0.05200
C531        C  0.50956070  0.55245674  0.66209662    -0.23400
C532        C  0.50914255  0.52417390  0.66456327     0.18800
C533        C  0.53670068  0.52229148  0.66522315     0.16000
C534        C  0.56419536  0.54866325  0.66346315    -0.18400
C535        C  0.53631127  0.49403194  0.66744236    -0.20200
C536        C  0.50887941  0.46783631  0.66882320    -0.12800
C537        C  0.48122860  0.46932069  0.66807238     0.03900
C538        C  0.48163997  0.49775633  0.66610732    -0.24900
H539        H  0.53659914  0.60011627  0.65843358     0.08900
H540        H  0.48865324  0.55435677  0.66162093     0.12600
H541        H  0.58520743  0.54697669  0.66366160     0.12500
H542        H  0.55723368  0.49216264  0.66802541     0.12200
H543        H  0.50948078  0.44643941  0.67063684     0.12800
H544        H  0.46067153  0.49946984  0.66524447     0.14700
C545        C  0.80541989  0.69617092  0.72511510    -0.05300
C546        C  0.80519905  0.66831533  0.73164615    -0.05200
C547        C  0.82986741  0.66701585  0.74699858    -0.23400
C548        C  0.85541717  0.69354961  0.75611536     0.18800
C549        C  0.85608667  0.72174867  0.74990844     0.16000
C550        C  0.83109013  0.72292197  0.73444465    -0.18400
C551        C  0.88181635  0.74821638  0.75916999    -0.20200
C552        C  0.90674226  0.74670116  0.77396948    -0.12800
C553        C  0.90642736  0.71868954  0.77985689     0.03900
C554        C  0.88037008  0.69219751  0.77108389    -0.24900
H555        H  0.78608581  0.64729865  0.72457791     0.08900
H556        H  0.82902093  0.64519761  0.75152452     0.12600
H557        H  0.83167347  0.74460660  0.72988223     0.12500
H558        H  0.88277721  0.77008952  0.75471218     0.12200
H559        H  0.92635256  0.76754825  0.78036747     0.12800
H560        H  0.87930102  0.67034510  0.77569794     0.14700
C561        C  0.69321409  0.81858559  0.60227099    -0.05300
C562        C  0.66627974  0.82141907  0.60189711    -0.05200
C563        C  0.66650537  0.84859792  0.59292903    -0.23400
C564        C  0.69365866  0.87343704  0.58398184     0.18800
C565        C  0.72083322  0.87080247  0.58382634     0.16000
C566        C  0.72046527  0.84343410  0.59302536    -0.18400
C567        C  0.74791443  0.89563645  0.57460304    -0.20200
C568        C  0.74809304  0.92288032  0.56580015    -0.12800
C569        C  0.72119609  0.92584536  0.56605478     0.03900
C570        C  0.69401377  0.90084068  0.57520244    -0.24900
H571        H  0.64500941  0.80280759  0.60919130     0.08900
H572        H  0.64545073  0.85022871  0.59318206     0.12600
H573        H  0.74135832  0.84150200  0.59281896     0.12500
H574        H  0.76898070  0.89403045  0.57429171     0.12200
H575        H  0.76941990  0.94161942  0.05901280     0.12800
H576        H  0.67296256  0.90240563  0.57527067     0.14700
loop_ 
_geom_bond_atom_site_label_1 
_geom_bond_atom_site_label_2 
_geom_bond_distance 
_geom_bond_site_symmetry_2 
_ccdc_geom_bond_type 
N1            N2   1.322       .  A
N1            C5   1.345       .  A
N1           Cu9   2.076       .  S
N2            C3   1.343       .  A
N2           Cu8   2.072       .  S
C3            C4   1.385       .  A
C3            H6   1.082       .  S
C4            C5   1.386       .  A
C4          C273   1.481       .  S
C5            H7   1.082       .  S
Cu8          N11   2.071       .  S
Cu9          N19   2.076       .  S
Cu10         N12   2.071       .  S
Cu10         N18   2.071       .  S
N11          N12   1.320       .  A
N11          C15   1.345       .  A
N12          C13   1.344       .  A
C13          C14   1.387       .  A
C13          H16   1.081       .  S
C14          C15   1.387       .  A
C14         C241   1.483       .  S
C15          H17   1.081       .  S
N18          N19   1.321       .  A
N18          C22   1.342       .  A
N19          C20   1.347       .  A
C20          C21   1.389       .  A
C20          H23   1.081       .  S
C21          C22   1.387       .  A
C21         C257   1.487       .  S
C22          H24   1.081       .  S
N25         N314   1.320   1_545  A
N25         C317   1.345   1_545  A
N25         Cu33   2.071       .  S
N26         N313   1.320   1_565  A
N26          C27   1.342       .  A
N26        Cu320   2.066   1_565  S
C27          C28   1.388       .  A
C27          H30   1.081       .  S
C28          C29   1.389       .  A
C28         C281   1.486       .  S
C29         N313   1.345   1_565  A
C29          H31   1.081       .  S
Cu32         N35   2.066       .  S
Cu32        N314   2.066   1_545  S
Cu33         N43   2.072       .  S
Cu34         N36   2.072       .  S
Cu34         N42   2.073       .  S
N35          N36   1.321       .  A
N35          C39   1.342       .  A
N36          C37   1.346       .  A
C37          C38   1.386       .  A
C37          H40   1.082       .  S
C38          C39   1.385       .  A
C38         C209   1.480       .  S
C39          H41   1.082       .  S
N42          N43   1.321       .  A
N42          C46   1.344       .  A
N43          C44   1.344       .  A
C44          C45   1.388       .  A
C44          H47   1.081       .  S
C45          C46   1.388       .  A
C45         C233   1.486       .  S
C46          H48   1.081       .  S
N49          N50   1.321       .  A
N49          C53   1.347       .  A
N49         Cu57   2.075       .  S
N50          C51   1.341       .  A
N50         Cu56   2.068       .  S
C51          C52   1.387       .  A
C51          H54   1.080       .  S
C52          C53   1.390       .  A
C52         C193   1.487       .  S
C53          H55   1.081       .  S
Cu56         N59   2.068       .  S
Cu57         N67   2.075   1_455  S
Cu58         N60   2.073   1_655  S
Cu58         N66   2.073       .  S
N59          N60   1.320       .  A
N59          C63   1.344       .  A
N60          C61   1.344       .  A
C61          C62   1.389       .  A
C61          H64   1.081   1_455  S
C62          C63   1.388       .  A
C62         C185   1.486       .  S
C63          H65   1.081       .  S
N66          N67   1.322       .  A
N66          C70   1.344       .  A
N67          C68   1.344       .  A
C68          C69   1.387       .  A
C68          H71   1.081       .  S
C69          C70   1.387       .  A
C69         C225   1.484       .  S
C70          H72   1.081       .  S
N73          N74   1.321       .  A
N73          C77   1.346       .  A
N73         Cu81   2.075       .  S
N74          C75   1.342       .  A
N74         Cu80   2.070       .  S
C75          C76   1.386       .  A
C75          H78   1.081       .  S
C76          C77   1.388       .  A
C76         C169   1.484       .  S
C77          H79   1.081       .  S
Cu80         N83   2.070       .  S
Cu81         N91   2.075       .  S
Cu82         N84   2.071       .  S
Cu82         N90   2.071       .  S
N83          N84   1.320       .  A
N83          C87   1.344       .  A
N84          C85   1.345       .  A
C85          C86   1.389       .  A
C85          H88   1.081       .  S
C86          C87   1.388       .  A
C86         C249   1.486       .  S
C87          H89   1.081       .  S
N90          N91   1.322       .  A
N90          C94   1.342       .  A
N91          C92   1.346       .  A
C92          C93   1.388       .  A
C92          H95   1.081       .  S
C93          C94   1.386       .  A
C93         C201   1.484       .  S
C94          H96   1.081       .  S
N97         N386   1.320       .  A
N97         C389   1.347       .  A
N97        Cu105   2.078       .  S
N98         N385   1.320       .  A
N98          C99   1.341       .  A
N98        Cu392   2.062       .  S
C99         C100   1.386       .  A
C99         H102   1.081       .  S
C100        C101   1.390       .  A
C100        C161   1.486       .  S
C101        N385   1.347       .  A
C101        H103   1.081       .  S
Cu104       N107   2.061       .  S
Cu104       N386   2.062       .  S
Cu105       N115   2.079   1_545  S
Cu106       N108   2.076       .  S
Cu106       N114   2.077       .  S
N107        N108   1.320   1_545  A
N107        C111   1.343       .  A
N108        C109   1.345       .  A
C109        C110   1.389   1_565  A
C109        H112   1.081       .  S
C110        C111   1.385       .  A
C110        C217   1.482       .  S
C111        H113   1.081       .  S
N114        N115   1.322       .  A
N114        C118   1.344       .  A
N115        C116   1.345       .  A
C116        C117   1.388       .  A
C116        H119   1.081       .  S
C117        C118   1.388       .  A
C117        C153   1.487       .  S
C118        H120   1.081       .  S
N121        N122   1.320       .  A
N121        C125   1.347       .  A
N121       Cu129   2.079   1_655  S
N122        C123   1.342       .  A
N122       Cu128   2.068       .  S
C123        C124   1.388       .  A
C123        H126   1.080       .  S
C124        C125   1.391       .  A
C124        C265   1.489       .  S
C125        H127   1.081       .  S
Cu128       N131   2.068   1_655  S
Cu129       N139   2.080       .  S
Cu130       N132   2.078       .  S
Cu130       N138   2.079       .  S
N131        N132   1.320       .  A
N131        C135   1.342   1_455  A
N132        C133   1.347       .  A
C133        C134   1.390       .  A
C133        H136   1.081       .  S
C134        C135   1.387   1_455  A
C134        C177   1.487       .  S
C135        H137   1.081       .  S
N138        N139   1.323       .  A
N138        C142   1.345       .  A
N139        C140   1.345       .  A
C140        C141   1.389       .  A
C140        H143   1.081       .  S
C141        C142   1.388       .  A
C141        C145   1.488       .  S
C142        H144   1.081       .  S
C145        C146   1.408       .  A
C145        C150   1.409       .  A
C146        C147   1.397       .  A
C146        H155   1.081       .  S
C147        C148   1.401       .  A
C147        H156   1.083       .  S
C148        C154   1.405       .  A
C148        C149   1.412       .  A
C149        C151   1.401       .  A
C149        C150   1.404       .  A
C150        H157   1.082       .  S
C151        C152   1.397       .  A
C151        H158   1.083       .  S
C152        C153   1.407       .  A
C152        H159   1.081       .  S
C153        C154   1.408       .  A
C154        H160   1.082       .  S
C161        C162   1.407       .  A
C161        C166   1.407       .  A
C162        C163   1.400       .  A
C162        H459   1.082       .  S
C163        C164   1.403       .  A
C163        H172   1.083       .  S
C164        C170   1.406       .  A
C164        C165   1.412       .  A
C165        C167   1.400       .  A
C165        C166   1.401       .  A
C166        H173   1.082       .  S
C167        C168   1.394       .  A
C167        H174   1.084       .  S
C168        C169   1.407       .  A
C168        H175   1.081       .  S
C169        C170   1.409       .  A
C170        H176   1.083       .  S
H171        C450   1.082       .  S
C177        C178   1.407   1_455  A
C177        C182   1.409       .  A
C178        C179   1.395       .  A
C178        H187   1.081       .  S
C179        C180   1.400   1_655  A
C179        H188   1.084       .  S
C180        C186   1.403       .  A
C180        C181   1.413       .  A
C181        C183   1.402       .  A
C181        C182   1.407       .  A
C182        H189   1.083       .  S
C183        C184   1.399       .  A
C183        H190   1.083       .  S
C184        C185   1.407       .  A
C184        H191   1.082       .  S
C185        C186   1.406       .  A
C186        H192   1.082   1_455  S
C193        C194   1.407       .  A
C193        C198   1.407       .  A
C194        C195   1.400       .  A
C194        H203   1.082       .  S
C195        C196   1.403       .  A
C195        H204   1.083       .  S
C196        C202   1.406       .  A
C196        C197   1.412       .  A
C197        C199   1.400       .  A
C197        C198   1.400       .  A
C198        H205   1.081       .  S
C199        C200   1.394       .  A
C199        H206   1.084       .  S
C200        C201   1.406       .  A
C200        H207   1.082       .  S
C201        C202   1.409       .  A
C202        H208   1.083       .  S
C209        C210   1.405       .  A
C209        C214   1.406       .  A
C210        C211   1.398       .  A
C210        H219   1.083       .  S
C211        C212   1.403       .  A
C211        H220   1.084       .  S
C212        C218   1.404       .  A
C212        C213   1.412       .  A
C213        C215   1.401   1_545  A
C213        C214   1.401       .  A
C214        H221   1.083       .  S
C215        C216   1.396       .  A
C215        H222   1.084       .  S
C216        C217   1.405   1_565  A
C216        H223   1.082       .  S
C217        C218   1.408       .  A
C218        H224   1.083       .  S
C225        C226   1.407       .  A
C225        C230   1.407       .  A
C226        C227   1.397       .  A
C226        H235   1.082       .  S
C227        C228   1.401       .  A
C227        H236   1.083       .  S
C228        C234   1.403       .  A
C228        C229   1.412       .  A
C229        C231   1.401       .  A
C229        C230   1.403       .  A
C230        H237   1.082       .  S
C231        C232   1.397       .  A
C231        H238   1.083       .  S
C232        C233   1.408       .  A
C232        H239   1.081       .  S
C233        C234   1.408       .  A
C234        H240   1.081       .  S
C241        C242   1.406       .  A
C241        C246   1.407       .  A
C242        C243   1.398       .  A
C242        H251   1.082       .  S
C243        C244   1.402       .  A
C243        H252   1.084       .  S
C244        C250   1.404       .  A
C244        C245   1.412       .  A
C245        C247   1.401       .  A
C245        C246   1.403       .  A
C246        H253   1.083       .  S
C247        C248   1.397       .  A
C247        H254   1.084       .  S
C248        C249   1.407       .  A
C248        H255   1.081       .  S
C249        C250   1.408       .  A
C250        H256   1.082       .  S
C257        C258   1.407       .  A
C257        C262   1.410       .  A
C258        C259   1.394       .  A
C258        H267   1.081       .  S
C259        C260   1.399       .  A
C259        H268   1.083       .  S
C260        C266   1.401       .  A
C260        C261   1.412       .  A
C261        C263   1.403       .  A
C261        C262   1.408       .  A
C262        H269   1.083       .  S
C263        C264   1.401       .  A
C263        H270   1.083       .  S
C264        C265   1.408       .  A
C264        H271   1.081       .  S
C265        C266   1.407       .  A
C266        H272   1.081       .  S
C273        C274   1.406       .  A
C273        C278   1.407       .  A
C274        C275   1.395       .  A
C274        H283   1.082       .  S
C275        C276   1.401       .  A
C275        H284   1.084       .  S
C276        C282   1.402       .  A
C276        C277   1.412       .  A
C277        C279   1.402       .  A
C277        C278   1.404       .  A
C278        H285   1.083       .  S
C279        C280   1.398       .  A
C279        H286   1.084       .  S
C280        C281   1.407       .  A
C280        H575   1.081       .  S
C281        C282   1.407       .  A
C282        H288   1.082       .  S
H287        C568   1.081       .  S
N289        N290   1.322       .  A
N289        C293   1.345       .  A
N289       Cu297   2.076       .  S
N290        C291   1.344       .  A
N290       Cu296   2.072       .  S
C291        C292   1.385       .  A
C291        H294   1.082       .  S
C292        C293   1.386       .  A
C292        C561   1.481       .  S
C293        H295   1.082       .  S
Cu296       N299   2.071       .  S
Cu297       N307   2.076       .  S
Cu298       N300   2.071       .  S
Cu298       N306   2.071       .  S
N299        N300   1.320       .  A
N299        C303   1.345       .  A
N300        C301   1.344       .  A
C301        C302   1.387       .  A
C301        H304   1.081       .  S
C302        C303   1.387       .  A
C302        C529   1.483       .  S
C303        H305   1.081       .  S
N306        N307   1.321       .  A
N306        C310   1.342       .  A
N307        C308   1.347       .  A
C308        C309   1.389       .  A
C308        H311   1.082       .  S
C309        C310   1.387       .  A
C309        C545   1.487       .  S
C310        H312   1.081       .  S
N313       Cu321   2.071       .  S
N314        C315   1.342       .  A
C315        C316   1.388       .  A
C315        H318   1.081       .  S
C316        C317   1.389       .  A
C316        C569   1.486       .  S
C317        H319   1.081       .  S
Cu320       N323   2.066       .  S
Cu321       N331   2.071   1_554  S
Cu322       N324   2.072   1_556  S
Cu322       N330   2.073       .  S
N323        N324   1.321       .  A
N323        C327   1.342       .  A
N324        C325   1.346       .  A
C325        C326   1.386       .  A
C325        H328   1.082   1_554  S
C326        C327   1.385       .  A
C326        C497   1.480       .  S
C327        H329   1.082       .  S
N330        N331   1.321       .  A
N330        C334   1.344       .  A
N331        C332   1.344       .  A
C332        C333   1.388       .  A
C332        H335   1.081       .  S
C333        C334   1.388       .  A
C333        C521   1.486       .  S
C334        H336   1.081       .  S
N337        N338   1.321       .  A
N337        C341   1.347       .  A
N337       Cu345   2.075       .  S
N338        C339   1.341       .  A
N338       Cu344   2.068       .  S
C339        C340   1.387       .  A
C339        H342   1.080       .  S
C340        C341   1.390       .  A
C340        C481   1.487       .  S
C341        H343   1.081       .  S
Cu344       N347   2.068       .  S
Cu345       N355   2.075   1_455  S
Cu346       N348   2.073   1_655  S
Cu346       N354   2.073       .  S
N347        N348   1.320       .  A
N347        C351   1.344       .  A
N348        C349   1.344       .  A
C349        C350   1.389       .  A
C349        H352   1.081   1_455  S
C350        C351   1.388       .  A
C350        C473   1.486       .  S
C351        H353   1.081       .  S
N354        N355   1.322       .  A
N354        C358   1.344       .  A
N355        C356   1.344       .  A
C356        C357   1.387       .  A
C356        H359   1.081       .  S
C357        C358   1.387       .  A
C357        C513   1.484       .  S
C358        H360   1.081       .  S
N361        N362   1.321       .  A
N361        C365   1.346       .  A
N361       Cu369   2.075       .  S
N362        C363   1.342       .  A
N362       Cu368   2.070       .  S
C363        C364   1.386       .  A
C363        H366   1.081       .  S
C364        C365   1.388       .  A
C364        C457   1.484       .  S
C365        H367   1.081       .  S
Cu368       N371   2.070       .  S
Cu369       N379   2.075       .  S
Cu370       N372   2.071       .  S
Cu370       N378   2.071       .  S
N371        N372   1.320       .  A
N371        C375   1.344       .  A
N372        C373   1.345       .  A
C373        C374   1.389       .  A
C373        H376   1.081       .  S
C374        C375   1.388       .  A
C374        C537   1.486       .  S
C375        H377   1.081       .  S
N378        N379   1.322       .  A
N378        C382   1.342       .  A
N379        C380   1.346       .  A
C380        C381   1.388       .  A
C380        H383   1.081       .  S
C381        C382   1.386       .  A
C381        C489   1.484       .  S
C382        H384   1.081       .  S
N385       Cu393   2.078       .  S
N386        C387   1.341       .  A
C387        C388   1.386       .  A
C387        H390   1.081       .  S
C388        C389   1.390       .  A
C388        C449   1.486       .  S
C389        H391   1.081       .  S
Cu392       N395   2.062       .  S
Cu393       N403   2.079   1_544  S
Cu394       N396   2.076   1_556  S
Cu394       N402   2.077       .  S
N395        N396   1.320   1_545  A
N395        C399   1.343       .  A
N396        C397   1.345       .  A
C397        C398   1.389   1_565  A
C397        H400   1.081   1_554  S
C398        C399   1.385       .  A
C398        C505   1.482       .  S
C399        H401   1.081       .  S
N402        N403   1.322       .  A
N402        C406   1.344       .  A
N403        C404   1.345       .  A
C404        C405   1.388       .  A
C404        H407   1.081       .  S
C405        C406   1.388       .  A
C405        C441   1.487       .  S
C406        H408   1.081       .  S
N409        N410   1.320       .  A
N409        C413   1.347       .  A
N409       Cu417   2.079   1_655  S
N410        C411   1.342       .  A
N410       Cu416   2.068       .  S
C411        C412   1.388       .  A
C411        H414   1.080       .  S
C412        C413   1.391       .  A
C412        C553   1.489       .  S
C413        H415   1.081       .  S
Cu416       N419   2.068   1_655  S
Cu417       N427   2.080       .  S
Cu418       N420   2.078       .  S
Cu418       N426   2.079       .  S
N419        N420   1.320       .  A
N419        C423   1.342   1_455  A
N420        C421   1.347       .  A
C421        C422   1.390       .  A
C421        H424   1.081       .  S
C422        C423   1.387   1_455  A
C422        C465   1.487       .  S
C423        H425   1.081       .  S
N426        N427   1.323       .  A
N426        C430   1.345       .  A
N427        C428   1.345       .  A
C428        C429   1.389       .  A
C428        H431   1.081       .  S
C429        C430   1.388       .  A
C429        C433   1.488       .  S
C430        H432   1.081       .  S
C433        C434   1.408       .  A
C433        C438   1.409       .  A
C434        C435   1.397       .  A
C434        H443   1.081       .  S
C435        C436   1.401       .  A
C435        H444   1.083       .  S
C436        C442   1.405       .  A
C436        C437   1.412       .  A
C437        C439   1.401       .  A
C437        C438   1.404       .  A
C438        H445   1.082       .  S
C439        C440   1.397       .  A
C439        H446   1.083       .  S
C440        C441   1.407       .  A
C440        H447   1.081       .  S
C441        C442   1.408       .  A
C442        H448   1.082       .  S
C449        C450   1.407       .  A
C449        C454   1.407       .  A
C450        C451   1.400       .  A
C451        C452   1.403       .  A
C451        H460   1.083       .  S
C452        C458   1.406       .  A
C452        C453   1.412       .  A
C453        C455   1.400       .  A
C453        C454   1.401       .  A
C454        H461   1.082       .  S
C455        C456   1.394       .  A
C455        H462   1.084       .  S
C456        C457   1.407       .  A
C456        H463   1.081       .  S
C457        C458   1.409       .  A
C458        H464   1.083       .  S
C465        C466   1.407   1_455  A
C465        C470   1.409       .  A
C466        C467   1.395       .  A
C466        H475   1.081       .  S
C467        C468   1.400   1_655  A
C467        H476   1.084       .  S
C468        C474   1.403       .  A
C468        C469   1.413       .  A
C469        C471   1.402       .  A
C469        C470   1.407       .  A
C470        H477   1.083       .  S
C471        C472   1.399       .  A
C471        H478   1.083       .  S
C472        C473   1.407       .  A
C472        H479   1.082       .  S
C473        C474   1.406       .  A
C474        H480   1.082   1_455  S
C481        C482   1.407       .  A
C481        C486   1.407       .  A
C482        C483   1.400       .  A
C482        H491   1.082       .  S
C483        C484   1.403       .  A
C483        H492   1.083       .  S
C484        C490   1.406       .  A
C484        C485   1.412       .  A
C485        C487   1.400       .  A
C485        C486   1.400       .  A
C486        H493   1.081       .  S
C487        C488   1.394       .  A
C487        H494   1.084       .  S
C488        C489   1.406       .  A
C488        H495   1.082       .  S
C489        C490   1.409       .  A
C490        H496   1.083       .  S
C497        C498   1.405       .  A
C497        C502   1.406       .  A
C498        C499   1.398       .  A
C498        H507   1.083       .  S
C499        C500   1.403       .  A
C499        H508   1.084       .  S
C500        C506   1.404       .  A
C500        C501   1.412       .  A
C501        C503   1.401   1_545  A
C501        C502   1.401       .  A
C502        H509   1.083       .  S
C503        C504   1.396       .  A
C503        H510   1.084       .  S
C504        C505   1.405   1_565  A
C504        H511   1.082       .  S
C505        C506   1.408       .  A
C506        H512   1.083       .  S
C513        C514   1.407       .  A
C513        C518   1.407       .  A
C514        C515   1.397       .  A
C514        H523   1.082       .  S
C515        C516   1.401       .  A
C515        H524   1.083       .  S
C516        C522   1.403       .  A
C516        C517   1.412       .  A
C517        C519   1.401       .  A
C517        C518   1.403       .  A
C518        H525   1.082       .  S
C519        C520   1.397       .  A
C519        H526   1.083       .  S
C520        C521   1.408       .  A
C520        H527   1.081       .  S
C521        C522   1.408       .  A
C522        H528   1.081       .  S
C529        C530   1.406       .  A
C529        C534   1.407       .  A
C530        C531   1.398       .  A
C530        H539   1.082       .  S
C531        C532   1.402       .  A
C531        H540   1.084       .  S
C532        C538   1.404       .  A
C532        C533   1.412       .  A
C533        C535   1.401       .  A
C533        C534   1.403       .  A
C534        H541   1.083       .  S
C535        C536   1.397       .  A
C535        H542   1.084       .  S
C536        C537   1.407       .  A
C536        H543   1.081       .  S
C537        C538   1.408       .  A
C538        H544   1.082       .  S
C545        C546   1.407       .  A
C545        C550   1.410       .  A
C546        C547   1.394       .  A
C546        H555   1.081       .  S
C547        C548   1.399       .  A
C547        H556   1.083       .  S
C548        C554   1.401       .  A
C548        C549   1.412       .  A
C549        C551   1.403       .  A
C549        C550   1.408       .  A
C550        H557   1.083       .  S
C551        C552   1.401       .  A
C551        H558   1.083       .  S
C552        C553   1.408       .  A
C552        H559   1.081       .  S
C553        C554   1.407       .  A
C554        H560   1.081       .  S
C561        C562   1.406       .  A
C561        C566   1.407       .  A
C562        C563   1.395       .  A
C562        H571   1.082       .  S
C563        C564   1.401       .  A
C563        H572   1.084       .  S
C564        C570   1.402       .  A
C564        C565   1.412       .  A
C565        C567   1.402       .  A
C565        C566   1.404       .  A
C566        H573   1.083       .  S
C567        C568   1.398       .  A
C567        H574   1.084       .  S
C568        C569   1.407       .  A
C569        C570   1.407       .  A
C570        H576   1.082       .  S
