geometry optimzed in LAMMPS
_audit_creation_date              2020-12-01 
_audit_creation_method            'lammps2cif' 
_symmetry_space_group_name_H-M    'P1' 
_symmetry_Int_Tables_number       1 
_symmetry_cell_setting            triclinic 
loop_ 
_symmetry_equiv_pos_as_xyz 
  x,y,z 
_cell_length_a                    29.46630181 
_cell_length_b                    29.682337242879168 
_cell_length_c                    35.619829918113126 
_cell_angle_alpha                 90.82746456593549 
_cell_angle_beta                  88.96754055488316 
_cell_angle_gamma                 90.3406437443675 
loop_ 
_atom_site_label 
_atom_site_type_symbol 
_atom_site_fract_x 
_atom_site_fract_y 
_atom_site_fract_z 
_atom_site_charge 
O1          O  0.05671372  0.99565585  0.44236678    -0.78700
O2          O  0.40823935  0.47072050  0.47232444    -0.78700
O3          O  0.04822153  0.41753424  0.47251227    -0.78700
O4          O  0.47565213  0.09483407  0.45633908    -0.78600
O5          O  0.47653899  0.41100430  0.47882573    -0.78800
O6          O  0.05418058  0.08330189  0.46964452    -0.78700
O7          O  0.40538145  0.03039533  0.46546401    -0.78700
O8          O  0.11667984  0.45088342  0.51229741    -0.78700
C9          C  0.12442715  0.46979209  0.48072713     1.11000
C10         C  0.41177052  0.48895559  0.44013760     1.10900
C11         C  0.50053509  0.41396675  0.44856967     1.11000
C12         C  0.51203577  0.11785395  0.46027956     1.10900
O13         O  0.03062857  0.11425827  0.01785709    -0.78700
O14         O  0.45922646  0.40099747  0.01828618    -0.78700
O15         O  0.07727343  0.47805738  0.04815057    -0.78700
O16         O  0.38962697  0.04365106  0.00439919    -0.78700
O17         O  0.40218362  0.47245953  0.02269911    -0.78700
O18         O  0.09395308  0.04806202  0.03222617    -0.78700
O19         O  0.46212819  0.10012103  0.01083480    -0.78600
O20         O  0.01356516  0.40866610  0.04834854    -0.78700
Co21       Co  0.03419271  0.02699202  0.48836669     1.51500
Co22       Co  0.44650176  0.45143914  0.98201004     1.51700
Co23       Co  0.05461538  0.46960221  0.51047744     1.51600
Co24       Co  0.44563629  0.05183548  0.97155000     1.51500
O25         O  0.99951133  0.97052175  0.49995071    -1.40600
C26         C  0.00165375  0.12014057  0.04457438     1.11000
C27         C  0.47828731  0.40280930  0.05021223     1.11000
C28         C  0.08605953  0.02832189  0.06325307     1.11000
C29         C  0.40768964  0.49575304  0.05273539     1.11000
C30         C  0.97730365  0.25503248  0.17479552     0.81700
N31         N  0.98107655  0.29420377  0.15565167    -0.76600
C32         C  0.98227888  0.29359676  0.11745566     0.84100
N33         N  0.98131074  0.25337768  0.09859066    -0.75800
C34         C  0.97817770  0.21408367  0.11769280     0.84200
N35         N  0.97566506  0.21514486  0.15576936    -0.78300
C36         C  0.01096180  0.24798550  0.35944414     0.81700
N37         N  0.02174138  0.28773422  0.37646308    -0.76600
C38         C  0.03701226  0.28864696  0.41222594     0.84100
N39         N  0.04156119  0.24932927  0.43077995    -0.76600
C40         C  0.03022913  0.20937055  0.41421388     0.84200
N41         N  0.01486458  0.20873564  0.37838479    -0.78300
C42         C  0.23884010  0.00656207  0.16256102     0.81700
N43         N  0.28046154  0.00746340  0.14566935    -0.76600
C44         C  0.28536242  0.01930581  0.10920398     0.84100
N45         N  0.24784944  0.02986397  0.08944402    -0.76600
C46         C  0.20570259  0.02848510  0.10588846     0.84200
N47         N  0.20129489  0.01675971  0.14265448    -0.78300
C48         C  0.25639830  0.47307297  0.34423136     0.81700
N49         N  0.29576881  0.46890944  0.36317949    -0.76600
C50         C  0.29459210  0.46326439  0.40100694     0.84100
N51         N  0.25404815  0.46215404  0.41968321    -0.76600
C52         C  0.21462160  0.46712720  0.40113489     0.84200
N53         N  0.21595895  0.47278451  0.36329611    -0.78300
C54         C  0.25756212  0.47856421  0.30406792    -0.17000
C55         C  0.24240372  0.98045432  0.27385447     0.07000
C56         C  0.25841959  0.48746462  0.23078764     0.08900
C57         C  0.25720082  0.49080813  0.19703402    -0.17900
C58         C  0.97808725  0.25522801  0.21519118    -0.17000
C59         C  0.98142135  0.25325325  0.24887728     0.07000
C60         C  0.98847405  0.24992313  0.28794746     0.08900
C61         C  0.99722170  0.24780223  0.32087323    -0.17900
C62         C  0.00991748  0.13047290  0.43132450    -0.15000
C63         C  0.03623808  0.16743827  0.43542889    -0.30100
H64         H  0.54036214  0.18610378  0.45098410     0.14100
H65         H  0.06131507  0.16832105  0.45739556     0.14600
C66         C  0.04493208  0.33185709  0.43243000    -0.15000
C67         C  0.03222345  0.37167165  0.41850487    -0.30100
H68         H  0.47629153  0.32733003  0.45541182     0.14100
H69         H  0.01853949  0.37299977  0.39047229     0.14600
C70         C  0.00253268  0.16333710  0.06580416    -0.15000
C71         C  0.97813905  0.17017830  0.09764590    -0.30100
H72         H  0.02356431  0.19034439  0.05479435     0.14100
H73         H  0.43154163  0.17088885  0.04190203     0.14600
C74         C  0.97355591  0.34049736  0.06131038    -0.15000
C75         C  0.98732424  0.33630282  0.09682811    -0.30100
H76         H  0.48646487  0.37094823  0.10554810     0.14100
H77         H  0.00289298  0.36503571  0.11123880     0.14600
C78         C  0.37596247  0.48031657  0.41227516    -0.15000
C79         C  0.33627258  0.46137953  0.42315257    -0.30100
H80         H  0.37877950  0.96039071  0.39534734     0.14100
H81         H  0.33218424  0.44936905  0.45158461     0.14600
C82         C  0.17093279  0.47068216  0.42218880    -0.15000
C83         C  0.16632829  0.45978965  0.45871660    -0.30100
H84         H  0.17553989  0.95081036  0.45835164     0.14100
H85         H  0.19435362  0.44442236  0.47314797     0.14600
C86         C  0.36989595  0.49799971  0.08101557    -0.15000
C87         C  0.33114879  0.01721811  0.09116393    -0.30100
H88         H  0.31546821  0.05534385  0.04386593     0.14100
H89         H  0.31925827  0.48816975  0.04066109     0.14600
C90         C  0.16567235  0.03780650  0.08247285    -0.15000
C91         C  0.12211878  0.02798193  0.09205485    -0.30100
H92         H  0.13329775  0.47743655  0.10442706     0.14100
H93         H  0.11419408  0.01389657  0.11946193     0.14600
O94         O  0.08502648  0.01334155  0.95691258    -0.78700
O95         O  0.42488283  0.49570558  0.94522409    -0.78700
O96         O  0.03821987  0.38650126  0.97105360    -0.78700
O97         O  0.49412514  0.06644361  0.93460977    -0.78600
O98         O  0.48574828  0.42626403  0.94187984    -0.78800
O99         O  0.02271131  0.07737369  0.94245811    -0.78700
O100        O  0.42476238  0.00750956  0.93416880    -0.78700
O101        O  0.09788357  0.45783541  0.96952863    -0.78700
C102        C  0.09265022  0.48264259  0.94094964     1.11000
C103        C  0.39662994  0.52432300  0.95762515     1.10900
C104        C  0.51583562  0.39789307  0.94927112     1.11000
C105        C  0.52265159  0.09614980  0.94302993     1.10900
O106        O  0.01987854  0.06339428  0.53844303    -0.78700
O107        O  0.49113335  0.44561892  0.55672768    -0.78700
O108        O  0.07260837  0.51582626  0.55216835    -0.78700
O109        O  0.41843890  0.03869238  0.54572956    -0.78700
O110        O  0.42142138  0.50540936  0.54800304    -0.78700
O111        O  0.09495505  0.02110231  0.51139324    -0.78700
O112        O  0.47645252  0.10922685  0.53396096    -0.78600
O113        O  0.03080423  0.43171272  0.55055966    -0.78700
Co114      Co  0.05503517  0.06078294  0.98766750     1.51500
Co115      Co  0.45241626  0.46121690  0.51391938     1.51700
Co116      Co  0.05320210  0.43583243  0.00934438     1.51600
Co117      Co  0.44698406  0.06423703  0.50000304     1.51500
O118        O  0.00564425  0.01611373  0.00024533    -1.40600
C119        C  0.98669538  0.08966018  0.54816395     1.11000
C120        C  0.52140969  0.41630032  0.55162043     1.11000
C121        C  0.10090611  0.00198755  0.54224403     1.11000
C122        C  0.39449078  0.53360348  0.53429574     1.11000
C123        C  0.00551909  0.24943045  0.64326292     0.81700
N124        N  0.00107312  0.28707719  0.62236505    -0.76600
C125        C  0.98470658  0.28384310  0.58691926     0.84100
N126        N  0.97248730  0.24308616  0.57286523    -0.75800
C127        C  0.97763915  0.20540386  0.59324075     0.84200
N128        N  0.99427485  0.20844269  0.62852207    -0.78300
C129        C  0.03098186  0.24506537  0.82804720     0.81700
N130        N  0.03339251  0.28054112  0.85265362    -0.76600
C131        C  0.02939776  0.27346105  0.89029450     0.84100
N132        N  0.02205211  0.23102532  0.90281926    -0.76600
C133        C  0.01906865  0.19564376  0.87836533     0.84200
N134        N  0.02423168  0.20266752  0.84099362    -0.78300
C135        C  0.25139048  0.98326377  0.65685042     0.81700
N136        N  0.28749539  0.98321969  0.63259220    -0.76600
C137        C  0.28065795  0.98351029  0.59490906     0.84100
N138        N  0.23766903  0.98448921  0.58186825    -0.76600
C139        C  0.20156878  0.98506971  0.60618962     0.84200
N140        N  0.20858089  0.98378421  0.64361096    -0.78300
C141        C  0.24556545  0.51534087  0.84122941     0.81700
N142        N  0.28779882  0.51632419  0.85579554    -0.76600
C143        C  0.29370353  0.50935764  0.89295148     0.84100
N144        N  0.25688018  0.50009588  0.91538673    -0.76600
C145        C  0.21439111  0.49809273  0.90070230     0.84200
N146        N  0.20901892  0.50606959  0.86357382    -0.78300
C147        C  0.23970626  0.52365258  0.80203151    -0.17000
C148        C  0.25680468  0.97579421  0.76965357     0.07000
C149        C  0.23498803  0.53741149  0.72985105     0.08900
C150        C  0.23713842  0.54245715  0.69635557    -0.17900
C151        C  0.01918122  0.25315921  0.68177491    -0.17000
C152        C  0.02699782  0.25493559  0.71493566     0.07000
C153        C  0.03213592  0.25479145  0.75437394     0.08900
C154        C  0.03330257  0.25212740  0.78815313    -0.17900
C155        C  0.98437754  0.14197041  0.92199151    -0.15000
C156        C  0.01271997  0.14972365  0.89278310    -0.30100
H157        H  0.51743160  0.12901602  0.88801389     0.14100
H158        H  0.03430219  0.12308875  0.88144335     0.14600
C159        C  0.03204847  0.31083526  0.91831286    -0.15000
C160        C  0.02452703  0.35417354  0.90988999    -0.30100
H161        H  0.57050251  0.32695024  0.95448220     0.14100
H162        H  0.01686572  0.36295151  0.88134114     0.14600
C163        C  0.99397632  0.12707678  0.57499483    -0.15000
C164        C  0.96542412  0.16209179  0.57594888    -0.30100
H165        H  0.02563881  0.12886622  0.59010694     0.14100
H166        H  0.49759285  0.18852811  0.54853929     0.14600
C167        C  0.00159960  0.36264738  0.57068260    -0.15000
C168        C  0.98124987  0.32335497  0.56259120    -0.30100
H169        H  0.50962526  0.38660609  0.60781227     0.14100
H170        H  0.96416496  0.31891196  0.53599160     0.14600
C171        C  0.35131115  0.52889987  0.94054146    -0.15000
C172        C  0.34040707  0.50895813  0.90775787    -0.30100
H173        H  0.36561916  0.97828386  0.88691558     0.14100
H174        H  0.36669723  0.49274994  0.89068265     0.14600
C175        C  0.17465253  0.48665571  0.92514484    -0.15000
C176        C  0.13104972  0.48885901  0.91390146    -0.30100
H177        H  0.13009702  0.98906510  0.89846894     0.14100
H178        H  0.12358813  0.50026455  0.88584458     0.14600
C179        C  0.35216938  0.54711631  0.55382764    -0.15000
C180        C  0.31917925  0.98205198  0.56785525    -0.30100
H181        H  0.36519610  0.01518491  0.60343495     0.14100
H182        H  0.36534892  0.51838675  0.60622384     0.14600
C183        C  0.15492665  0.98573380  0.59224616    -0.15000
C184        C  0.14513558  0.00654468  0.56033732    -0.30100
H185        H  0.18952983  0.57364331  0.54063609     0.14100
H186        H  0.17165100  0.02519064  0.54540882     0.14600
O187        O  0.09447015  0.49716859  0.46778214    -0.78700
O188        O  0.43878161  0.96570235  0.45103992    -0.78700
O189        O  0.03567506  0.87785611  0.48285757    -0.78700
O190        O  0.51143768  0.58141515  0.44288113    -0.78600
O191        O  0.44933943  0.89345089  0.49708396    -0.78800
O192        O  0.04410244  0.57396946  0.45583084    -0.78700
O193        O  0.44220851  0.51826704  0.43320684    -0.78700
O194        O  0.09420698  0.94733885  0.47712929    -0.78700
C195        C  0.08981490  0.96905786  0.44662482     1.11000
C196        C  0.40807078  0.99441866  0.44573530     1.10900
C197        C  0.48228342  0.88551518  0.47462460     1.11000
C198        C  0.53458773  0.61233231  0.45793728     1.10900
O199        O  0.02472193  0.56724173  0.03682208    -0.78700
O200        O  0.48507237  0.94196406  0.05390291    -0.78700
O201        O  0.05063197  0.00419204  0.06759940    -0.78700
O202        O  0.44303546  0.52012976  0.05675203    -0.78700
O203        O  0.41360703  0.00069978  0.04969669    -0.78700
O204        O  0.09762024  0.52937436  0.00780089    -0.78700
O205        O  0.45221839  0.60659472  0.03078962    -0.78600
O206        O  0.04301629  0.91416107  0.05143313    -0.78700
Co207      Co  0.05203056  0.53814999  0.50053136     1.51500
Co208      Co  0.44119074  0.95610212  0.01454958     1.51700
Co209      Co  0.04915341  0.92945501  0.51789142     1.51600
Co210      Co  0.46732072  0.54934700  0.01057576     1.51500
O211        O  0.99638197  0.49813007  0.49543157    -1.40600
C212        C  0.99389129  0.59602233  0.04392000     1.11000
C213        C  0.51372991  0.91174798  0.04643864     1.11000
C214        C  0.10549016  0.50765763  0.03726902     1.11000
C215        C  0.38440907  0.02730380  0.03699000     1.11000
C216        C  0.00299900  0.73739950  0.15181420     0.81700
N217        N  0.00986356  0.77998417  0.13976510    -0.76600
C218        C  0.00517606  0.78962708  0.10295588     0.84100
N219        N  0.99460579  0.75602765  0.07797336    -0.75800
C220        C  0.98936034  0.71290011  0.09011883     0.84200
N221        N  0.99317332  0.70404370  0.12709920    -0.78300
C222        C  0.99095470  0.72590043  0.33572817     0.81700
N223        N  0.99209335  0.76911462  0.34848641    -0.76600
C224        C  0.99068764  0.77793595  0.38582369     0.84100
N225        N  0.98692699  0.74346936  0.41034519    -0.76600
C226        C  0.98535479  0.70023321  0.39768030     0.84200
N227        N  0.98792335  0.69134507  0.36019131    -0.78300
C228        C  0.25294135  0.49381215  0.15691788     0.81700
N229        N  0.29047128  0.49450700  0.13407837    -0.76600
C230        C  0.28601173  0.49606323  0.09612834     0.84100
N231        N  0.24363107  0.49718639  0.08136650    -0.76600
C232        C  0.20598897  0.49654980  0.10417072     0.84200
N233        N  0.21095597  0.49425748  0.14187327    -0.78300
C234        C  0.24877951  0.97437148  0.34766086     0.81700
N235        N  0.28849242  0.98335915  0.36554641    -0.76600
C236        C  0.28921085  0.98433916  0.40377836     0.84100
N237        N  0.25037047  0.97639002  0.42360306    -0.76600
C238        C  0.21090053  0.96719303  0.40605283     0.84200
N239        N  0.21001634  0.96666849  0.36795752    -0.78300
C240        C  0.24656174  0.97646344  0.30734490    -0.17000
C241        C  0.25829342  0.48285952  0.27035116     0.07000
C242        C  0.23738343  0.98759912  0.23489462     0.08900
C243        C  0.23547120  0.99549987  0.20176361    -0.17900
C244        C  0.00441439  0.72770040  0.19079069    -0.17000
C245        C  0.00265409  0.72053144  0.22381255     0.07000
C246        C  0.99845917  0.71603525  0.26280756     0.08900
C247        C  0.99456027  0.71736264  0.29635606    -0.17900
C248        C  0.00314608  0.62439303  0.41946170    -0.15000
C249        C  0.98198211  0.66378755  0.42503180    -0.30100
H250        H  0.55429148  0.68463014  0.45772401     0.14100
H251        H  0.96619569  0.67137538  0.45221189     0.14600
C252        C  0.99403592  0.82447474  0.39985818    -0.15000
C253        C  0.01921165  0.83364677  0.42994346    -0.30100
H254        H  0.53208548  0.86456096  0.41318593     0.14100
H255        H  0.03974109  0.80719003  0.44164307     0.14600
C256        C  0.99965671  0.63389530  0.07043078    -0.15000
C257        C  0.98249077  0.67505918  0.06351485    -0.30100
H258        H  0.02019970  0.62863665  0.09494912     0.14100
H259        H  0.44819151  0.66171734  0.09228036     0.14600
C260        C  0.98784329  0.85912545  0.06917330    -0.15000
C261        C  0.01610809  0.83545466  0.09025610    -0.30100
H262        H  0.51228921  0.88465300  0.10358544     0.14100
H263        H  0.04781220  0.85049342  0.09942391     0.14600
C264        C  0.37207214  0.98418612  0.41815791    -0.15000
C265        C  0.32955917  0.99898850  0.42488266    -0.30100
H266        H  0.37956883  0.49493321  0.38470818     0.14100
H267        H  0.32275192  0.01887147  0.45017445     0.14600
C268        C  0.16984305  0.95940817  0.42940952    -0.15000
C269        C  0.12732253  0.96827615  0.41840092    -0.30100
H270        H  0.14211657  0.48420555  0.40751071     0.14100
H271        H  0.12141641  0.98056759  0.39050769     0.14600
C272        C  0.34109354  0.03582924  0.05775993    -0.15000
C273        C  0.32621763  0.49347321  0.07032390    -0.30100
H274        H  0.37758165  0.50635846  0.11004700     0.14100
H275        H  0.35710296  0.99859860  0.10548010     0.14600
C276        C  0.15975235  0.49480512  0.08848171    -0.15000
C277        C  0.14971102  0.51391572  0.05574764    -0.30100
H278        H  0.17323823  0.04960147  0.05421769     0.14100
H279        H  0.17566690  0.53334599  0.04096149     0.14600
O280        O  0.05725321  0.50653278  0.93818836    -0.78700
O281        O  0.39198506  0.96401000  0.97656910    -0.78700
O282        O  0.02298306  0.92500267  0.97859294    -0.78700
O283        O  0.48231139  0.58491394  0.96034159    -0.78600
O284        O  0.46163030  0.90610711  0.97847903    -0.78800
O285        O  0.05139436  0.59246153  0.96695143    -0.78700
O286        O  0.40531177  0.54546885  0.98777795    -0.78700
O287        O  0.09644450  0.96665105  0.00327772    -0.78700
C288        C  0.10743631  0.98191484  0.97126333     1.11000
C289        C  0.39470952  0.97912591  0.94330402     1.10900
C290        C  0.48195346  0.90911728  0.94655624     1.11000
C291        C  0.51675570  0.60554759  0.94479722     1.10900
O292        O  0.02043004  0.58966188  0.53446033    -0.78700
O293        O  0.49002737  0.93941011  0.55366654    -0.78700
O294        O  0.07078084  0.97530942  0.55444825    -0.78700
O295        O  0.40130351  0.54861877  0.50165876    -0.78700
O296        O  0.40568311  0.96928800  0.52601319    -0.78700
O297        O  0.10711961  0.56645593  0.51618479    -0.78700
O298        O  0.47124893  0.60509945  0.51737744    -0.78600
O299        O  0.00795089  0.90512242  0.55735324    -0.78700
Co300      Co  0.03583499  0.53517571  0.98586758     1.51500
Co301      Co  0.46577214  0.95611044  0.50124908     1.51700
Co302      Co  0.03274117  0.96621461  0.02390151     1.51600
Co303      Co  0.45973756  0.56008197  0.47426142     1.51500
O304        O  0.00164828  0.47953040  0.99782715    -1.40600
C305        C  0.98596637  0.61122937  0.54961050     1.11000
C306        C  0.52145427  0.90975656  0.55842722     1.11000
C307        C  0.10410640  0.54603639  0.54749243     1.11000
C308        C  0.39671852  0.00215460  0.54788052     1.11000
C309        C  0.96667977  0.74625844  0.67957857     0.81700
N310        N  0.97460477  0.78556449  0.66161259    -0.76600
C311        C  0.97887453  0.78600101  0.62367172     0.84100
N312        N  0.97649774  0.74654400  0.60377010    -0.75800
C313        C  0.96920306  0.70698140  0.62174614     0.84200
N314        N  0.96357682  0.70705270  0.65967286    -0.78300
C315        C  0.98814037  0.75719670  0.86416516     0.81700
N316        N  0.99301546  0.79755215  0.88214984    -0.76600
C317        C  0.00973396  0.79925413  0.91748384     0.84100
N318        N  0.02166053  0.76053335  0.93445319    -0.76600
C319        C  0.01626381  0.72019375  0.91672729     0.84200
N320        N  0.99950461  0.71863146  0.88149765    -0.78300
C321        C  0.24473132  0.54708317  0.65670378     0.81700
N322        N  0.28725054  0.54117829  0.64227145    -0.76600
C323        C  0.29535046  0.54527523  0.60491344     0.84100
N324        N  0.26040571  0.55487898  0.58198643    -0.76600
C325        C  0.21759095  0.56006116  0.59602915     0.84200
N326        N  0.20972875  0.55594673  0.63360326    -0.78300
C327        C  0.24759139  0.96661504  0.84293068     0.81700
N328        N  0.28443804  0.95997826  0.86440990    -0.76600
C329        C  0.27930855  0.95526989  0.90214763     0.84100
N330        N  0.23736028  0.95767756  0.91814470    -0.76600
C331        C  0.20046326  0.96492006  0.89688635     0.84200
N332        N  0.20570461  0.96973425  0.85921082    -0.78300
C333        C  0.25308261  0.97182366  0.80316535    -0.17000
C334        C  0.23631255  0.53035677  0.76891138     0.07000
C335        C  0.25903078  0.97954805  0.73026294     0.08900
C336        C  0.25784792  0.98177578  0.69657324    -0.17900
C337        C  0.96306070  0.74629900  0.71973737    -0.17000
C338        C  0.96296023  0.74836231  0.75351241     0.07000
C339        C  0.96693516  0.75213262  0.79278402     0.08900
C340        C  0.97431792  0.75522300  0.82584396    -0.17900
C341        C  0.00833821  0.63905884  0.92755307    -0.15000
C342        C  0.02772926  0.67865134  0.93626756    -0.30100
H343        H  0.53730029  0.64958312  0.89793004     0.14100
H344        H  0.04926043  0.68145397  0.96087874     0.14600
C345        C  0.01438895  0.84217330  0.93839177    -0.15000
C346        C  0.99224981  0.87990762  0.92945020    -0.30100
H347        H  0.44846526  0.82655713  0.95554386     0.14100
H348        H  0.97027154  0.88013182  0.90528921     0.14600
C349        C  0.99349635  0.65264855  0.57217442    -0.15000
C350        C  0.96468104  0.66441710  0.60030408    -0.30100
H351        H  0.02304081  0.67351524  0.56589967     0.14100
H352        H  0.47875237  0.68664426  0.54051053     0.14600
C353        C  0.96978965  0.83542324  0.56997345    -0.15000
C354        C  0.98583732  0.82924320  0.60442311    -0.30100
H355        H  0.49129531  0.88090392  0.61041013     0.14100
H356        H  0.00324847  0.85659712  0.61905632     0.14600
C357        C  0.35976767  0.96786697  0.91577339    -0.15000
C358        C  0.31867197  0.95307749  0.92677263    -0.30100
H359        H  0.32542143  0.54738826  0.95635869     0.14100
H360        H  0.31216775  0.94546781  0.95618662     0.14600
C361        C  0.15596694  0.97314192  0.91496118    -0.15000
C362        C  0.14811361  0.96477430  0.95151246    -0.30100
H363        H  0.18151344  0.47796714  0.95404135     0.14100
H364        H  0.17301631  0.94707433  0.96774165     0.14600
C365        C  0.36010067  0.99888784  0.57635400    -0.15000
C366        C  0.34112752  0.53583742  0.58913626    -0.30100
H367        H  0.32821522  0.56608524  0.53758147     0.14100
H368        H  0.31292161  0.96999381  0.53948940     0.14600
C369        C  0.18017927  0.56589328  0.56939828    -0.15000
C370        C  0.13700268  0.55426212  0.57767932    -0.30100
H371        H  0.12833670  0.96875747  0.60838772     0.14100
H372        H  0.12806225  0.54295115  0.60563130     0.14600
O373        O  0.57794114  0.02999271  0.45812854    -0.78700
O374        O  0.91858165  0.49118191  0.45127017    -0.78700
O375        O  0.52803035  0.44667799  0.44457539    -0.78700
O376        O  0.98182049  0.06498444  0.46428343    -0.78600
O377        O  0.98934970  0.43370844  0.43857871    -0.78800
O378        O  0.54201188  0.10678302  0.48422822    -0.78700
O379        O  0.90493986  0.02276897  0.49119530    -0.78700
O380        O  0.61259653  0.45410000  0.47621313    -0.78700
C381        C  0.62311607  0.49232039  0.46297671     1.11000
C382        C  0.89159534  0.51985001  0.46584029     1.10900
C383        C  0.02429522  0.41085237  0.44360607     1.11000
C384        C  0.01571467  0.09139312  0.45616625     1.10900
O385        O  0.50853996  0.06461550  0.04856314    -0.78700
O386        O  0.96330844  0.38473758  0.00739708    -0.78700
O387        O  0.57448205  0.49753214  0.04891532    -0.78700
O388        O  0.92397005  0.00777670  0.05489118    -0.78700
O389        O  0.90442235  0.45484007  0.01863615    -0.78700
O390        O  0.59732807  0.05923072  0.02369746    -0.78700
O391        O  0.97075364  0.09146244  0.05164853    -0.78600
O392        O  0.50852550  0.43195447  0.05672633    -0.78700
Co393      Co  0.55112607  0.04555535  0.50798761     1.51500
Co394      Co  0.94989588  0.43940767  0.97648022     1.51700
Co395      Co  0.55398924  0.47357079  0.49087770     1.51600
Co396      Co  0.94829258  0.04982489  0.01280205     1.51500
O397        O  0.49649224  0.01621438  0.49526971    -1.40600
C398        C  0.48073456  0.09609546  0.04300955     1.11000
C399        C  0.98315218  0.38084428  0.03856031     1.11000
C400        C  0.60489417  0.02138596  0.03810359     1.11000
C401        C  0.90731717  0.48026316  0.04788359     1.11000
C402        C  0.46017135  0.24950219  0.14962136     0.81700
N403        N  0.45656918  0.28897053  0.13065007    -0.76600
C404        C  0.44931548  0.28836199  0.09295873     0.84100
N405        N  0.44584975  0.24847864  0.07452588    -0.75800
C406        C  0.45074040  0.20896725  0.09232350     0.84200
N407        N  0.45801177  0.20924315  0.13021597    -0.78300
C408        C  0.48283944  0.26160200  0.33917504     0.81700
N409        N  0.48385764  0.29947740  0.36172345    -0.76600
C410        C  0.48844967  0.29553447  0.39980671     0.84100
N411        N  0.49238978  0.25374260  0.41468967    -0.76600
C412        C  0.49183822  0.21610444  0.39250300     0.84200
N413        N  0.48626069  0.22029259  0.35492805    -0.78300
C414        C  0.73897332  0.97008633  0.15636397     0.81700
N415        N  0.77698711  0.96657620  0.13410666    -0.76600
C416        C  0.77321311  0.96651361  0.09601213     0.84100
N417        N  0.73172915  0.97096718  0.08070292    -0.76600
C418        C  0.69396435  0.97481492  0.10275845     0.84200
N419        N  0.69756072  0.97398592  0.14061246    -0.78300
C420        C  0.75736120  0.53175957  0.33653510     0.81700
N421        N  0.79700787  0.52711539  0.35473400    -0.76600
C422        C  0.79743624  0.52506421  0.39272927     0.84100
N423        N  0.75749949  0.52612068  0.41255039    -0.76600
C424        C  0.71744964  0.53042325  0.39441730     0.84200
N425        N  0.71755740  0.53352992  0.35635811    -0.78300
C426        C  0.75764334  0.53095631  0.29617938    -0.17000
C427        C  0.74017897  0.97578423  0.27028646     0.07000
C428        C  0.76145364  0.52100643  0.22300566     0.08900
C429        C  0.76096820  0.51475398  0.18947383    -0.17900
C430        C  0.46550458  0.25105448  0.19041272    -0.17000
C431        C  0.46916581  0.25524369  0.22443085     0.07000
C432        C  0.47343041  0.26095412  0.26442838     0.08900
C433        C  0.47744398  0.26398871  0.29848320    -0.17900
C434        C  0.51740455  0.16092485  0.43972366    -0.15000
C435        C  0.49274393  0.17055800  0.40928932    -0.30100
H436        H  0.98195862  0.13046165  0.41192323     0.14100
H437        H  0.47210467  0.14446681  0.39647517     0.14600
C438        C  0.48609441  0.33494320  0.42657126    -0.15000
C439        C  0.49901685  0.37761493  0.41883186    -0.30100
H440        H  0.05568508  0.33022189  0.46136854     0.14100
H441        H  0.51230214  0.38517121  0.39092234     0.14600
C442        C  0.47386772  0.13060375  0.07347003    -0.15000
C443        C  0.44890033  0.16762729  0.06832292    -0.30100
H444        H  0.49318228  0.12765575  0.09893685     0.14100
H445        H  0.95945699  0.14251586  0.11021943     0.14600
C446        C  0.46952374  0.36779996  0.07879878    -0.15000
C447        C  0.44738174  0.32954430  0.07018551    -0.30100
H448        H  0.95552956  0.31253031  0.04782570     0.14100
H449        H  0.43289532  0.32576720  0.04247712     0.14600
C450        C  0.84837818  0.52997692  0.44735193    -0.15000
C451        C  0.84115211  0.51830931  0.41138433    -0.30100
H452        H  0.82649730  0.02581723  0.45859966     0.14100
H453        H  0.86877181  0.50384341  0.39450207     0.14600
C454        C  0.67380822  0.52878491  0.41555324    -0.15000
C455        C  0.66605220  0.49679485  0.44121016    -0.30100
H456        H  0.68647862  0.97352617  0.46247727     0.14100
H457        H  0.69205844  0.47174376  0.44582683     0.14600
C458        C  0.86968417  0.48224237  0.07578515    -0.15000
C459        C  0.81288701  0.96260069  0.07020584    -0.30100
H460        H  0.86263220  0.98553590  0.10785897     0.14100
H461        H  0.81925826  0.47491265  0.03496949     0.14600
C462        C  0.64981942  0.98186538  0.08531915    -0.15000
C463        C  0.64481509  0.01625768  0.06177427    -0.30100
H464        H  0.63457139  0.49065904  0.10002943     0.14100
H465        H  0.67216222  0.04059592  0.05837429     0.14600
O466        O  0.58075001  0.01826874  0.95773243    -0.78700
O467        O  0.92502438  0.48547829  0.94177066    -0.78700
O468        O  0.53312469  0.39697637  0.98184734    -0.78700
O469        O  0.96128458  0.09786421  0.97371664    -0.78600
O470        O  0.98998940  0.41993788  0.93444333    -0.78800
O471        O  0.53787197  0.09660055  0.97606218    -0.78700
O472        O  0.88696924  0.07204038  0.01157150    -0.78700
O473        O  0.59540832  0.46289009  0.97377644    -0.78700
C474        C  0.59082842  0.48142731  0.94199405     1.11000
C475        C  0.89236723  0.50956778  0.95382655     1.10900
C476        C  0.01834015  0.38917430  0.93969179     1.11000
C477        C  0.98860511  0.10230655  0.94609224     1.10900
O478        O  0.52636940  0.06626000  0.55847428    -0.78700
O479        O  0.97883686  0.39934358  0.51468392    -0.78700
O480        O  0.58603944  0.49213392  0.54104824    -0.78700
O481        O  0.94622749  0.99652947  0.55894751    -0.78700
O482        O  0.91027408  0.45955260  0.52686412    -0.78700
O483        O  0.60996055  0.05608167  0.52744493    -0.78700
O484        O  0.94810791  0.08338312  0.53401720    -0.78600
O485        O  0.54393933  0.41621561  0.52075587    -0.78700
Co486      Co  0.54134262  0.03856968  0.00488239     1.51500
Co487      Co  0.95210100  0.44864042  0.48291235     1.51700
Co488      Co  0.54943664  0.45018809  0.01531926     1.51600
Co489      Co  0.96689379  0.02763344  0.51317730     1.51500
O490        O  0.48436864  0.00377259  0.99422202    -1.40600
C491        C  0.50444747  0.10232794  0.55944555     1.11000
C492        C  0.00303458  0.40021159  0.54413117     1.11000
C493        C  0.60758455  0.02452869  0.55159995     1.11000
C494        C  0.91528153  0.48072952  0.55787651     1.11000
C495        C  0.53245277  0.26305401  0.65555295     0.81700
N496        N  0.53907861  0.30192025  0.63569728    -0.76600
C497        C  0.53827990  0.30063483  0.59726770     0.84100
N498        N  0.53005611  0.26096852  0.57943985    -0.75800
C499        C  0.52274643  0.22250912  0.59863543     0.84200
N500        N  0.52416516  0.22345547  0.63682028    -0.78300
C501        C  0.54716634  0.24977084  0.84508301     0.81700
N502        N  0.54895433  0.28901441  0.86543928    -0.76600
C503        C  0.55649262  0.28819312  0.90306663     0.84100
N504        N  0.56193952  0.24833116  0.92010964    -0.76600
C505        C  0.55866329  0.20898480  0.90082457     0.84200
N506        N  0.55106041  0.20950265  0.86302976    -0.78300
C507        C  0.75739704  0.00453818  0.65647483     0.81700
N508        N  0.79419586  0.98846049  0.63686422    -0.76600
C509        C  0.79415808  0.98776489  0.59863766     0.84100
N510        N  0.75806129  0.00403392  0.58039450    -0.76600
C511        C  0.72156213  0.02037558  0.59944681     0.84200
N512        N  0.72085571  0.02022913  0.63770269    -0.78300
C513        C  0.74431686  0.48815042  0.83944898     0.81700
N514        N  0.78631842  0.48896045  0.85389642    -0.76600
C515        C  0.79181119  0.48685889  0.89128897     0.84100
N516        N  0.75478387  0.48328470  0.91459489    -0.76600
C517        C  0.71227721  0.48154159  0.90012442     0.84200
N518        N  0.70720982  0.48423225  0.86233964    -0.78300
C519        C  0.74015114  0.49125212  0.79981407    -0.17000
C520        C  0.75767529  0.01014992  0.77107171     0.07000
C521        C  0.74809733  0.49478860  0.72707576     0.08900
C522        C  0.75265444  0.49349061  0.69352154    -0.17900
C523        C  0.53409183  0.26314100  0.69650907    -0.17000
C524        C  0.53566239  0.26009717  0.73059701     0.07000
C525        C  0.53827512  0.25511490  0.77054493     0.08900
C526        C  0.54153788  0.25143028  0.80447360    -0.17900
C527        C  0.53431224  0.13089893  0.91483626    -0.15000
C528        C  0.55926087  0.16735339  0.92326168    -0.30100
H529        H  0.96156912  0.16851487  0.93170210     0.14100
H530        H  0.57409322  0.16992814  0.95090475     0.14600
C531        C  0.55469828  0.32888301  0.92727459    -0.15000
C532        C  0.52741738  0.36355546  0.92022530    -0.30100
H533        H  0.03600514  0.30182175  0.94738914     0.14100
H534        H  0.50970149  0.36449705  0.89380923     0.14600
C535        C  0.51499587  0.13884969  0.58692274    -0.15000
C536        C  0.50977315  0.18195990  0.57668697    -0.30100
H537        H  0.53071072  0.13092421  0.61347259     0.14100
H538        H  0.93604852  0.16180995  0.55794507     0.14600
C539        C  0.52689117  0.38131897  0.58090416    -0.15000
C540        C  0.54525150  0.34085449  0.57320434    -0.30100
H541        H  0.02033578  0.36651675  0.59654162     0.14100
H542        H  0.55894941  0.33463763  0.54507425     0.14600
C543        C  0.84780392  0.51068063  0.93660676    -0.15000
C544        C  0.83807274  0.48755507  0.90559594    -0.30100
H545        H  0.80974353  0.07250009  0.97201491     0.14100
H546        H  0.86478514  0.47059124  0.88947286     0.14600
C547        C  0.67230524  0.47655445  0.92562806    -0.15000
C548        C  0.62897892  0.48043592  0.91435653    -0.30100
H549        H  0.66319938  0.05249524  0.94321293     0.14100
H550        H  0.62197917  0.48802101  0.88522357     0.14600
C551        C  0.87883527  0.47750827  0.58687748    -0.15000
C552        C  0.83220930  0.97028342  0.57552813    -0.30100
H553        H  0.88445077  0.98748255  0.61269390     0.14100
H554        H  0.83401510  0.44501434  0.54970064     0.14600
C555        C  0.68362512  0.03731606  0.57735272    -0.15000
C556        C  0.64165226  0.02040484  0.58133764    -0.30100
H557        H  0.67155875  0.46184757  0.55074514     0.14100
H558        H  0.63428076  0.99745767  0.60416271     0.14600
O559        O  0.59643112  0.52659067  0.46897941    -0.78700
O560        O  0.92684973  0.97652324  0.44703364    -0.78700
O561        O  0.51275229  0.91665919  0.47002631    -0.78700
O562        O  0.97254968  0.58541819  0.47203281    -0.78600
O563        O  0.98718911  0.90562725  0.44267219    -0.78800
O564        O  0.55006735  0.60531338  0.49015020    -0.78700
O565        O  0.90049178  0.53842552  0.49720005    -0.78700
O566        O  0.59239967  0.96287071  0.47739142    -0.78700
C567        C  0.60003598  0.99412894  0.45440884     1.11000
C568        C  0.89766215  0.00368588  0.46002675     1.10900
C569        C  0.01511653  0.87562768  0.45183782     1.11000
C570        C  0.00654322  0.59246670  0.45031785     1.10900
O571        O  0.52527426  0.58846694  0.02460187    -0.78700
O572        O  0.97056450  0.92710521  0.03701198    -0.78700
O573        O  0.57840374  0.98742954  0.03094367    -0.78700
O574        O  0.93885588  0.50908845  0.05048323    -0.78700
O575        O  0.88841950  0.95804318  0.01847765    -0.78700
O576        O  0.59758574  0.53944295  0.00261845    -0.78700
O577        O  0.95744528  0.59071443  0.02790111    -0.78600
O578        O  0.53293430  0.91092851  0.01421147    -0.78700
Co579      Co  0.55156147  0.54399626  0.51400085     1.51500
Co580      Co  0.94665887  0.98035174  0.00335403     1.51700
Co581      Co  0.53675483  0.96185635  0.51079249     1.51600
Co582      Co  0.95861602  0.53333237  0.00204431     1.51500
O583        O  0.49686907  0.50964873  0.49698501    -1.40600
C584        C  0.49362952  0.61503899  0.03729110     1.11000
C585        C  0.00132352  0.90279395  0.05289754     1.11000
C586        C  0.60488245  0.52218069  0.03425899     1.11000
C587        C  0.89079893  0.97948300  0.04981592     1.11000
C588        C  0.50715176  0.76739050  0.15196091     0.81700
N589        N  0.51855680  0.80194589  0.12876809    -0.76600
C590        C  0.51803687  0.79559712  0.09075227     0.84100
N591        N  0.50632179  0.75465495  0.07641646    -0.75800
C592        C  0.49402675  0.72049205  0.09945209     0.84200
N593        N  0.49419809  0.72700120  0.13719320    -0.78300
C594        C  0.51521281  0.76089354  0.33976798     0.81700
N595        N  0.51409056  0.79809702  0.36226005    -0.76600
C596        C  0.51344345  0.79427535  0.40022476     0.84100
N597        N  0.51528906  0.75250544  0.41583093    -0.76600
C598        C  0.51730860  0.71486807  0.39323174     0.84200
N599        N  0.51649558  0.71943795  0.35529400    -0.78300
C600        C  0.75586800  0.50761217  0.14979691     0.81700
N601        N  0.79237988  0.49851299  0.12718037    -0.76600
C602        C  0.78693499  0.49206635  0.08959559     0.84100
N603        N  0.74467770  0.49556705  0.07483496    -0.76600
C604        C  0.70805378  0.50463845  0.09757853     0.84200
N605        N  0.71391390  0.50996573  0.13502396    -0.78300
C606        C  0.74682104  0.98153257  0.34412459     0.81700
N607        N  0.78949086  0.98454198  0.35762115    -0.76600
C608        C  0.79630374  0.98769720  0.39508780     0.84100
N609        N  0.76002448  0.98656689  0.41922841    -0.76600
C610        C  0.71707488  0.98305049  0.40608269     0.84200
N611        N  0.71050165  0.98079170  0.36830406    -0.78300
C612        C  0.74091429  0.97838232  0.30414810    -0.17000
C613        C  0.75949610  0.52741215  0.26239847     0.07000
C614        C  0.74156806  0.97297299  0.23056341     0.08900
C615        C  0.74204612  0.97109930  0.19665471    -0.17900
C616        C  0.50963342  0.77255642  0.19219964    -0.17000
C617        C  0.51158646  0.77252800  0.22609991     0.07000
C618        C  0.51345278  0.76935822  0.26575673     0.08900
C619        C  0.51455205  0.76550442  0.29950252    -0.17900
C620        C  0.53779475  0.65820507  0.44147465    -0.15000
C621        C  0.51831279  0.66858578  0.40877112    -0.30100
H622        H  0.02332226  0.61851834  0.39403236     0.14100
H623        H  0.50342617  0.64176797  0.39189810     0.14600
C624        C  0.51243703  0.83620582  0.42338051    -0.15000
C625        C  0.48456867  0.84203186  0.45340448    -0.30100
H626        H  0.97461174  0.85053619  0.38654169     0.14100
H627        H  0.46219380  0.81488351  0.46194822     0.14600
C628        C  0.50711776  0.65598047  0.05799149    -0.15000
C629        C  0.48015668  0.67681961  0.08330323    -0.30100
H630        H  0.54055641  0.66990272  0.05174980     0.14100
H631        H  0.96553871  0.68135220  0.03724930     0.14600
C632        C  0.52048509  0.87631115  0.07449388    -0.15000
C633        C  0.52635221  0.83300115  0.06431371    -0.30100
H634        H  0.95482681  0.84513881  0.06224560     0.14100
H635        H  0.53062353  0.82439988  0.03473143     0.14600
C636        C  0.85302096  0.00852758  0.44242835    -0.15000
C637        C  0.84311026  0.98940978  0.40918899    -0.30100
H638        H  0.82180906  0.54693711  0.46374380     0.14100
H639        H  0.86988946  0.97395495  0.39204080     0.14600
C640        C  0.67858954  0.98057092  0.43340079    -0.15000
C641        C  0.63558975  0.99038459  0.42475977    -0.30100
H642        H  0.64682342  0.55156058  0.40805145     0.14100
H643        H  0.62785551  0.00176759  0.39671738     0.14600
C644        C  0.85545147  0.97400121  0.07945960    -0.15000
C645        C  0.82623208  0.48123375  0.06450455    -0.30100
H646        H  0.87743166  0.49185525  0.10456173     0.14100
H647        H  0.80569654  0.95469167  0.04096889     0.14600
C648        C  0.66137994  0.50569269  0.08290455    -0.15000
C649        C  0.65085773  0.52555847  0.05054338    -0.30100
H650        H  0.62208067  0.95869202  0.09113668     0.14100
H651        H  0.67739036  0.54248795  0.03438196     0.14600
O652        O  0.55632858  0.50542235  0.93585519    -0.78700
O653        O  0.91086591  0.02222496  0.96885243    -0.78700
O654        O  0.50877518  0.94163038  0.94011396    -0.78700
O655        O  0.97883264  0.57412346  0.95781456    -0.78600
O656        O  0.95450021  0.94085965  0.95942550    -0.78800
O657        O  0.55689106  0.59516459  0.95320745    -0.78700
O658        O  0.89722086  0.53064762  0.98380214    -0.78700
O659        O  0.59641086  0.94576353  0.96398072    -0.78700
C660        C  0.60574392  0.98356848  0.94957287     1.11000
C661        C  0.88055485  0.05078079  0.98057074     1.10900
C662        C  0.99024401  0.91797931  0.95643293     1.11000
C663        C  0.01356046  0.60016378  0.95182397     1.10900
O664        O  0.51322942  0.56600667  0.55622112    -0.78700
O665        O  0.95925640  0.87835990  0.51617333    -0.78700
O666        O  0.57360728  0.99628906  0.55182710    -0.78700
O667        O  0.94732160  0.50904729  0.56190001    -0.78700
O668        O  0.90416629  0.95004427  0.52485031    -0.78700
O669        O  0.60409410  0.56455873  0.53887494    -0.78700
O670        O  0.94553211  0.59773458  0.54453827    -0.78600
O671        O  0.55544259  0.90891503  0.53576936    -0.78700
Co672      Co  0.53609216  0.54378382  0.97879812     1.51500
Co673      Co  0.94747133  0.93064220  0.48270819     1.51700
Co674      Co  0.54044915  0.96770200  0.98368285     1.51600
Co675      Co  0.96319613  0.54625252  0.51774630     1.51500
O676        O  0.49938037  0.49179219  0.99747887    -1.40600
C677        C  0.48811857  0.59947283  0.55000014     1.11000
C678        C  0.97868427  0.87596327  0.54756924     1.11000
C679        C  0.61056710  0.52593042  0.55202943     1.11000
C680        C  0.91152750  0.97158553  0.55560236     1.11000
C681        C  0.49508694  0.75300873  0.65529134     0.81700
N682        N  0.50924304  0.79187698  0.63867824    -0.76600
C683        C  0.51509462  0.79322176  0.60075973     0.84100
N684        N  0.50614689  0.75603315  0.57970449    -0.75800
C685        C  0.49141322  0.71734117  0.59560338     0.84200
N686        N  0.48628272  0.71555848  0.63372359    -0.78300
C687        C  0.47843647  0.75407104  0.84450698     0.81700
N688        N  0.47255941  0.79285550  0.86504937    -0.76600
C689        C  0.46608555  0.79094239  0.90302267     0.84100
N690        N  0.46533016  0.75036520  0.91998649    -0.76600
C691        C  0.47242415  0.71184951  0.89998273     0.84200
N692        N  0.47911752  0.71368621  0.86215764    -0.78300
C693        C  0.75491727  0.48827780  0.65364620     0.81700
N694        N  0.79492093  0.47819658  0.63594186    -0.76600
C695        C  0.79565360  0.46931412  0.59840654     0.84100
N696        N  0.75643950  0.47036698  0.57903515    -0.76600
C697        C  0.71683426  0.48164174  0.59651473     0.84200
N698        N  0.71610604  0.49057520  0.63391486    -0.78300
C699        C  0.75594732  0.02054805  0.84536311     0.81700
N700        N  0.79488903  0.02903429  0.86422047    -0.76600
C701        C  0.79360857  0.03748561  0.90190850     0.84100
N702        N  0.75302451  0.03704728  0.92065175    -0.76600
C703        C  0.71412119  0.02742475  0.90217294     0.84200
N704        N  0.71564438  0.01910601  0.86450843    -0.78300
C705        C  0.75722883  0.01400585  0.80501507    -0.17000
C706        C  0.74237989  0.49357507  0.76623807     0.07000
C707        C  0.75765174  0.00712509  0.73115413     0.08900
C708        C  0.75743454  0.00553172  0.69711754    -0.17900
C709        C  0.49035449  0.75172281  0.69583839    -0.17000
C710        C  0.48760070  0.75260615  0.72988709     0.07000
C711        C  0.48501494  0.75440151  0.76987843     0.08900
C712        C  0.48259812  0.75527295  0.80393600    -0.17900
C713        C  0.50978189  0.64153738  0.91732174    -0.15000
C714        C  0.47381314  0.66897955  0.92029294    -0.30100
H715        H  0.98334482  0.63689843  0.90531399     0.14100
H716        H  0.44897378  0.66390258  0.94265786     0.14600
C717        C  0.46145740  0.83169143  0.92722069    -0.15000
C718        C  0.47823691  0.87236425  0.91805556    -0.30100
H719        H  0.03319771  0.84134169  0.96437488     0.14100
H720        H  0.49382309  0.87723715  0.89058558     0.14600
C721        C  0.48438244  0.63516104  0.57957761    -0.15000
C722        C  0.48194769  0.67868395  0.56999547    -0.30100
H723        H  0.49148375  0.62656583  0.60836621     0.14100
H724        H  0.93762526  0.64139552  0.60870307     0.14600
C725        C  0.51568481  0.87516123  0.58768889    -0.15000
C726        C  0.53209990  0.83357101  0.58120745    -0.30100
H727        H  0.95008989  0.80854123  0.55673352     0.14100
H728        H  0.55248496  0.82735695  0.55598266     0.14600
C729        C  0.83922024  0.05758513  0.95823947    -0.15000
C730        C  0.83666228  0.04173232  0.92258262    -0.30100
H731        H  0.82110393  0.52949983  0.95131461     0.14100
H732        H  0.86695495  0.02880218  0.90856963     0.14600
C733        C  0.67087457  0.02525909  0.92350389    -0.15000
C734        C  0.64485747  0.98789451  0.92337665    -0.30100
H735        H  0.67897537  0.47171657  0.95529395     0.14100
H736        H  0.65538942  0.95861890  0.90692188     0.14600
C737        C  0.87584256  0.97412840  0.58519908    -0.15000
C738        C  0.83809854  0.46040440  0.57731403    -0.30100
H739        H  0.88270769  0.49555855  0.61338494     0.14100
H740        H  0.82422796  0.96085382  0.54681140     0.14600
C741        C  0.67545267  0.48490330  0.57444543    -0.15000
C742        C  0.64651439  0.51929336  0.57929630    -0.30100
H743        H  0.69221231  0.05647299  0.55245080     0.14100
H744        H  0.65323055  0.54561881  0.59996449     0.14600
loop_ 
_geom_bond_atom_site_label_1 
_geom_bond_atom_site_label_2 
_geom_bond_distance 
_geom_bond_site_symmetry_2 
_ccdc_geom_bond_type 
O1          Co21   1.978   1_565  S
O1          C195   1.271       .  A
O2         Co115   2.014       .  S
O2           C10   1.277       .  A
O3          Co23   2.049       .  S
O3          C383   1.271       .  A
O4         Co117   1.985       .  S
O4           C12   1.277       .  A
O5         Co115   2.053       .  S
O5           C11   1.282       .  A
O6          Co21   1.895       .  S
O6          C384   1.265       .  A
O7         Co117   2.007       .  S
O7          C196   1.272   1_545  A
O8          Co23   1.917       .  S
O8            C9   1.280       .  A
C9          O187   1.299       .  A
C9           C83   1.480       .  S
C10         O193   1.269       .  A
C10          C78   1.480       .  S
C11         O375   1.269       .  A
C11         C439   1.502       .  S
C12         O378   1.286       .  A
C12         C434   1.489       .  S
O13        Co114   2.032   1_554  S
O13          C26   1.278       .  A
O14         Co22   2.033   1_554  S
O14          C27   1.278       .  A
O15        Co116   1.990       .  S
O15         C214   1.266       .  A
O16         Co24   2.021   1_554  S
O16         C215   1.271       .  A
O17         Co22   2.027   1_554  S
O17          C29   1.278       .  A
O18        Co114   2.016   1_554  S
O18          C28   1.275       .  A
O19         Co24   2.051   1_554  S
O19         C398   1.287       .  A
O20        Co116   1.977       .  S
O20         C399   1.265   1_455  A
Co21        O106   2.109       .  S
Co21        O111   1.992       .  S
Co21         O25   2.002   1_445  S
Co22         O95   1.985       .  S
Co22         O98   1.964       .  S
Co22        O676   2.039       .  S
Co23        O108   2.081       .  S
Co23        O113   1.948       .  S
Co23        O211   2.003   1_455  S
Co24         O97   1.975       .  S
Co24        O100   1.963       .  S
Co24        O490   2.019       .  S
O25        Co673   2.030       .  S
O25        Co209   2.028   1_655  S
O25        Co489   2.000   1_565  S
C26         O391   1.267   1_455  A
C26          C70   1.479       .  S
C27         O392   1.260       .  A
C27         C446   1.484       .  S
C28         O201   1.271       .  A
C28          C91   1.490       .  S
C29         O202   1.274       .  A
C29          C86   1.489       .  S
C30          N31   1.359       .  A
C30          N35   1.357       .  A
C30          C58   1.439       .  S
N31          C32   1.360       .  A
C32          C75   1.480       .  S
C32          N33   1.362       .  A
N33          C34   1.361       .  A
C34          C71   1.477       .  S
C34          N35   1.357       .  A
C36          N37   1.357       .  A
C36          N41   1.361       .  A
C36          C61   1.439   1_455  S
N37          C38   1.358       .  A
C38          C66   1.481       .  S
C38          N39   1.358       .  A
N39          C40   1.360       .  A
C40          C63   1.479       .  S
C40          N41   1.362       .  A
C42          N43   1.357       .  A
C42          N47   1.363       .  A
C42         C243   1.441   1_545  S
N43          C44   1.355       .  A
C44          C87   1.485       .  S
C44          N45   1.362       .  A
N45          C46   1.364       .  A
C46          C90   1.486       .  S
C46          N47   1.364       .  A
C48          N49   1.360       .  A
C48          N53   1.361       .  A
C48          C54   1.442       .  S
N49          C50   1.360       .  A
C50          C79   1.473       .  S
C50          N51   1.357       .  A
N51          C52   1.357       .  A
C52          C82   1.482       .  S
C52          N53   1.360       .  A
C54         C241   1.209       .  T
C55         C240   1.209       .  T
C55         C242   1.417       .  S
C56          C57   1.209       .  T
C56         C241   1.418       .  S
C57         C228   1.441       .  S
C58          C59   1.208       .  T
C59          C60   1.416       .  S
C60          C61   1.208       .  T
C62         C384   1.482       .  S
C62          C63   1.348       .  D
C62         H436   1.085   1_455  S
C63          H65   1.086       .  S
H64         C434   1.083       .  S
C66          C67   1.346       .  D
C66         H440   1.086       .  S
C67         C383   1.474       .  S
C67          H69   1.085       .  S
H68         C438   1.089       .  S
C70          C71   1.345   1_455  D
C70          H72   1.084       .  S
C71         H445   1.084       .  S
H73         C443   1.085       .  S
C74         C399   1.479       .  S
C74          C75   1.343       .  D
C74         H448   1.093       .  S
C75          H77   1.092   1_655  S
H76         C446   1.086       .  S
C78          C79   1.348       .  D
C78         H266   1.082       .  S
C79          H81   1.083       .  S
H80         C264   1.085       .  S
C82          C83   1.349       .  D
C82         H270   1.087       .  S
C83          H85   1.087       .  S
H84         C268   1.082       .  S
C86         C273   1.354       .  D
C86         H274   1.087       .  S
C87         C272   1.346       .  D
C87         H275   1.085   1_545  S
H88         C272   1.085       .  S
H89         C273   1.089       .  S
C90          C91   1.353       .  D
C90         H278   1.089       .  S
C91          H93   1.088       .  S
H92         C276   1.088       .  S
O94        Co114   1.975       .  S
O94         C288   1.265   1_545  A
O95         C103   1.263       .  A
O96        Co116   2.039   1_556  S
O96         C476   1.274       .  A
O97         C105   1.252       .  A
O98         C104   1.260       .  A
O99        Co114   1.956       .  S
O99         C477   1.255   1_455  A
O100        C289   1.260   1_545  A
O101       Co116   2.030   1_556  S
O101        C102   1.277       .  A
C102        O280   1.271       .  A
C102        C176   1.485       .  S
C103        O286   1.265       .  A
C103        C171   1.485       .  S
C104        O468   1.276       .  A
C104        C532   1.479       .  S
C105        O471   1.267       .  A
C105        C527   1.484       .  S
O106        C119   1.293   1_455  A
O107       Co115   1.983       .  S
O107        C120   1.259       .  A
O108        C307   1.297       .  A
O109       Co117   1.978       .  S
O109        C308   1.259       .  A
O110       Co115   1.989       .  S
O110        C122   1.266       .  A
O111        C121   1.260       .  A
O112       Co117   1.994       .  S
O112        C491   1.257       .  A
O113        C492   1.260       .  A
Co114       O118   2.012   1_556  S
Co115       O583   2.030       .  S
Co116       O304   2.054   1_554  S
Co117       O397   2.049       .  S
O118       Co580   2.033   1_445  S
O118       Co302   1.901   1_545  S
O118       Co396   2.009   1_455  S
C119        O484   1.264       .  A
C119        C163   1.472       .  S
C120        O485   1.274       .  A
C120        C539   1.494       .  S
C121        O294   1.262   1_545  A
C121        C184   1.469       .  S
C122        O295   1.263       .  A
C122        C179   1.472       .  S
C123        N124   1.360       .  A
C123        N128   1.360   1_455  A
C123        C151   1.439       .  S
N124        C125   1.362   1_455  A
C125        C168   1.473       .  S
C125        N126   1.352       .  A
N126        C127   1.353       .  A
C127        C164   1.463       .  S
C127        N128   1.359       .  A
C129        N130   1.363       .  A
C129        N134   1.359       .  A
C129        C154   1.440       .  S
N130        C131   1.363       .  A
C131        C159   1.484       .  S
C131        N132   1.357       .  A
N132        C133   1.358       .  A
C133        C156   1.473       .  S
C133        N134   1.356       .  A
C135        N136   1.358       .  A
C135        N140   1.355       .  A
C135        C336   1.432       .  S
N136        C137   1.361       .  A
C137        C180   1.476       .  S
C137        N138   1.358       .  A
N138        C139   1.360       .  A
C139        C183   1.470       .  S
C139        N140   1.354       .  A
C141        N142   1.357       .  A
C141        N146   1.357       .  A
C141        C147   1.435       .  S
N142        C143   1.357       .  A
C143        C172   1.483       .  S
C143        N144   1.365       .  A
N144        C145   1.366       .  A
C145        C175   1.487       .  S
C145        N146   1.359       .  A
C147        C334   1.205       .  T
C148        C333   1.204       .  T
C148        C335   1.409       .  S
C149        C150   1.205       .  T
C149        C334   1.411       .  S
C150        C321   1.434       .  S
C151        C152   1.208       .  T
C152        C153   1.416       .  S
C153        C154   1.208       .  T
C155        C477   1.474       .  S
C155        C156   1.344   1_655  D
C155        H529   1.087       .  S
C156        H158   1.086       .  S
H157        C527   1.086       .  S
C159        C160   1.346       .  D
C159        H533   1.082       .  S
C160        C476   1.484       .  S
C160        H162   1.081       .  S
H161        C531   1.085       .  S
C163        C164   1.341       .  D
C163        H165   1.086   1_655  S
C164        H538   1.086       .  S
H166        C536   1.092       .  S
C167        C492   1.472       .  S
C167        C168   1.338   1_455  D
C167        H541   1.087       .  S
C168        H170   1.087       .  S
H169        C539   1.087       .  S
C171        C172   1.345       .  D
C171        H359   1.087       .  S
C172        H174   1.087       .  S
H173        C357   1.088       .  S
C175        C176   1.355       .  D
C175        H363   1.087       .  S
C176        H178   1.086       .  S
H177        C361   1.085       .  S
C179        C366   1.340       .  D
C179        H367   1.086       .  S
C180        C365   1.341       .  D
C180        H368   1.086       .  S
H181        C365   1.085   1_545  S
H182        C366   1.085       .  S
C183        C184   1.338   1_565  D
C183        H371   1.089       .  S
C184        H186   1.090       .  S
H185        C369   1.084       .  S
O187       Co207   2.081       .  S
O188       Co301   1.995       .  S
O188        C196   1.265       .  A
O189       Co209   2.004       .  S
O189        C569   1.270       .  A
O190       Co303   1.980       .  S
O190        C198   1.260       .  A
O191       Co301   1.923       .  S
O191        C197   1.268       .  A
O192       Co207   1.946       .  S
O192        C570   1.258       .  A
O193       Co303   1.978       .  S
O194       Co209   2.024       .  S
O194        C195   1.280       .  A
C195        C269   1.481       .  S
C196        C264   1.486       .  S
C197        O561   1.295       .  A
C197        C625   1.488       .  S
C198        O564   1.263       .  A
C198        C620   1.492       .  S
O199       Co300   2.059   1_554  S
O199        C212   1.270   1_455  A
O200       Co208   1.975       .  S
O200        C213   1.258       .  A
O201       Co302   1.986   1_545  S
O202       Co210   1.990       .  S
O203       Co208   1.977   1_545  S
O203        C215   1.265       .  A
O204       Co300   2.003   1_554  S
O204        C214   1.265       .  A
O205       Co210   1.888       .  S
O205        C584   1.269       .  A
O206       Co302   1.871       .  S
O206        C585   1.272       .  A
Co207       O292   2.142       .  S
Co207       O297   1.912       .  S
Co207       O211   2.028   1_455  S
Co208       O281   2.018   1_554  S
Co208       O284   2.036   1_554  S
Co208       O490   2.030   1_564  S
Co209       O294   1.981       .  S
Co209       O299   1.982       .  S
Co210       O283   2.129   1_554  S
Co210       O286   2.015   1_554  S
Co210       O676   2.002   1_554  S
O211       Co487   2.010       .  S
O211       Co675   1.893       .  S
C212        O577   1.233       .  A
C212        C256   1.469       .  S
C213        O578   1.271       .  A
C213        C632   1.478       .  S
C214        C277   1.480       .  S
C215        C272   1.485       .  S
C216        N217   1.354       .  A
C216        N221   1.349   1_455  A
C216        C244   1.423       .  S
N217        C218   1.356       .  A
C218        C261   1.472       .  S
C218        N219   1.365   1_455  A
N219        C220   1.364       .  A
C220        C257   1.474       .  S
C220        N221   1.354       .  A
C222        N223   1.355       .  A
C222        N227   1.357       .  A
C222        C247   1.424       .  S
N223        C224   1.352       .  A
C224        C252   1.466       .  S
C224        N225   1.357       .  A
N225        C226   1.355       .  A
C226        C249   1.468       .  S
C226        N227   1.358       .  A
C228        N229   1.361       .  A
C228        N233   1.357       .  A
N229        C230   1.362       .  A
C230        C273   1.488       .  S
C230        N231   1.364       .  A
N231        C232   1.363       .  A
C232        C276   1.482       .  S
C232        N233   1.356       .  A
C234        N235   1.366       .  A
C234        N239   1.361       .  A
C234        C240   1.441       .  S
N235        C236   1.362       .  A
C236        C265   1.478       .  S
C236        N237   1.355       .  A
N237        C238   1.355       .  A
C238        C268   1.475       .  S
C238        N239   1.358       .  A
C242        C243   1.209       .  T
C244        C245   1.198       .  T
C245        C246   1.400   1_455  S
C246        C247   1.199       .  T
C248        C570   1.467       .  S
C248        C249   1.339   1_455  D
C248        H622   1.087       .  S
C249        H251   1.088       .  S
H250        C620   1.086       .  S
C252        C253   1.338   1_655  D
C252        H626   1.085       .  S
C253        C569   1.465       .  S
C253        H255   1.087       .  S
H254        C624   1.082       .  S
C256        C257   1.353       .  D
C256        H258   1.085   1_655  S
C257        H631   1.088       .  S
H259        C629   1.086       .  S
C260        C585   1.477   1_655  S
C260        C261   1.340   1_655  D
C260        H634   1.087       .  S
C261        H263   1.086       .  S
H262        C632   1.085       .  S
C264        C265   1.346       .  D
C265        H267   1.086   1_565  S
C268        C269   1.348       .  D
C269        H271   1.081       .  S
C276        C277   1.343       .  D
C277        H279   1.088       .  S
O280       Co300   1.983       .  S
O281        C289   1.274       .  A
O282       Co302   2.035   1_556  S
O282        C662   1.272   1_455  A
O283        C291   1.302       .  A
O284        C290   1.280       .  A
O285       Co300   1.889       .  S
O285        C663   1.270       .  A
O287       Co302   2.003       .  S
O287        C288   1.269   1_554  A
C288        C362   1.469       .  S
C289        C357   1.468       .  S
C290        O654   1.265       .  A
C290        C718   1.484       .  S
C291        O657   1.266       .  A
C291        C713   1.477       .  S
O292        C305   1.308   1_455  A
O293       Co301   2.079       .  S
O293        C306   1.296       .  A
O295       Co303   1.994       .  S
O296       Co301   2.002       .  S
O296        C308   1.266   1_565  A
O297        C307   1.278       .  A
O298       Co303   2.053       .  S
O298        C677   1.286       .  A
O299        C678   1.268   1_455  A
Co300       O304   1.977       .  S
Co301       O397   2.008   1_565  S
Co303       O583   2.044       .  S
O304       Co394   2.078   1_455  S
O304       Co582   2.047   1_456  S
C305        O670   1.270       .  A
C305        C349   1.477       .  S
C306        O671   1.275       .  A
C306        C725   1.481       .  S
C307        C370   1.477       .  S
C308        C365   1.471   1_545  S
C309        N310   1.356       .  A
C309        N314   1.357       .  A
C309        C337   1.432       .  S
N310        C311   1.355       .  A
C311        C354   1.475       .  S
C311        N312   1.362       .  A
N312        C313   1.360       .  A
C313        C350   1.473       .  S
C313        N314   1.358       .  A
C315        N316   1.358       .  A
C315        N320   1.355       .  A
C315        C340   1.432       .  S
N316        C317   1.360   1_655  A
C317        C345   1.473       .  S
C317        N318   1.357       .  A
N318        C319   1.355       .  A
C319        C342   1.469       .  S
C319        N320   1.357   1_455  A
C321        N322   1.357       .  A
C321        N326   1.360       .  A
N322        C323   1.355       .  A
C323        C366   1.479       .  S
C323        N324   1.360       .  A
N324        C325   1.358       .  A
C325        C369   1.480       .  S
C325        N326   1.361       .  A
C327        N328   1.356       .  A
C327        N332   1.357       .  A
C327        C333   1.433       .  S
N328        C329   1.359       .  A
C329        C358   1.469       .  S
C329        N330   1.354       .  A
N330        C331   1.356       .  A
C331        C361   1.470       .  S
C331        N332   1.358       .  A
C335        C336   1.204       .  T
C337        C338   1.204       .  T
C338        C339   1.409       .  S
C339        C340   1.203       .  T
C341        C663   1.463       .  S
C341        C342   1.339       .  D
C341        H715   1.092   1_455  S
C342        H344   1.093       .  S
H343        C713   1.083       .  S
C345        C346   1.345   1_455  D
C345        H719   1.088       .  S
C346        C662   1.474       .  S
C346        H348   1.086       .  S
H347        C717   1.085       .  S
C349        C350   1.345       .  D
C349        H351   1.087   1_655  S
C350        H724   1.088       .  S
H352        C722   1.086       .  S
C353        C678   1.473       .  S
C353        C354   1.338       .  D
C353        H727   1.091       .  S
C354        H356   1.089   1_655  S
H355        C725   1.085       .  S
C357        C358   1.339       .  D
C358        H360   1.088       .  S
C361        C362   1.345       .  D
C362        H364   1.085       .  S
C369        C370   1.345       .  D
C370        H372   1.083       .  S
O373       Co393   1.980       .  S
O373        C567   1.255   1_545  A
O374       Co487   1.984       .  S
O374        C382   1.267       .  A
O375       Co395   1.986       .  S
O376       Co489   2.116       .  S
O376        C384   1.297   1_655  A
O377       Co487   1.954       .  S
O377        C383   1.253   1_655  A
O378       Co393   2.037       .  S
O379       Co489   2.003       .  S
O379        C568   1.260       .  A
O380       Co395   1.887       .  S
O380        C381   1.269       .  A
C381        O559   1.302       .  A
C381        C455   1.478       .  S
C382        O565   1.269       .  A
C382        C450   1.479       .  S
O385       Co486   1.968       .  S
O385        C398   1.266       .  A
O386       Co394   2.019   1_554  S
O386        C399   1.271       .  A
O387       Co488   1.981       .  S
O387        C586   1.264       .  A
O388       Co396   2.079       .  S
O388        C587   1.298   1_545  A
O389       Co394   2.043   1_554  S
O389        C401   1.281       .  A
O390       Co486   1.887       .  S
O390        C400   1.264       .  A
O391       Co396   1.963       .  S
O392       Co488   1.968       .  S
Co393       O478   2.017       .  S
Co393       O483   1.901       .  S
Co393       O397   1.885       .  S
Co394       O467   2.007       .  S
Co394       O470   1.973       .  S
Co395       O480   2.101       .  S
Co395       O485   2.038       .  S
Co395       O583   2.007       .  S
Co396       O469   2.037   1_554  S
Co396       O472   1.929       .  S
O397       Co581   2.095   1_545  S
C398        C442   1.493       .  S
C400        O573   1.296   1_545  A
C400        C463   1.469       .  S
C401        O574   1.263       .  A
C401        C458   1.477       .  S
C402        N403   1.366       .  A
C402        N407   1.374       .  A
C402        C430   1.464       .  S
N403        C404   1.363       .  A
C404        C447   1.479       .  S
C404        N405   1.350       .  A
N405        C406   1.351       .  A
C406        C443   1.487       .  S
C406        N407   1.370       .  A
C408        N409   1.373       .  A
C408        N413   1.361       .  A
C408        C433   1.464       .  S
N409        C410   1.372       .  A
C410        C438   1.499       .  S
C410        N411   1.362       .  A
N411        C412   1.359       .  A
C412        C435   1.487       .  S
C412        N413   1.359       .  A
C414        N415   1.364       .  A
C414        N419   1.358       .  A
C414        C615   1.439       .  S
N415        C416   1.363       .  A
C416        C459   1.478       .  S
C416        N417   1.355       .  A
N417        C418   1.355       .  A
C418        C462   1.469       .  S
C418        N419   1.355       .  A
C420        N421   1.355       .  A
C420        N425   1.359       .  A
C420        C426   1.437       .  S
N421        C422   1.356       .  A
C422        C451   1.476       .  S
C422        N423   1.362       .  A
N423        C424   1.363       .  A
C424        C454   1.479       .  S
C424        N425   1.360       .  A
C426        C613   1.207       .  T
C427        C612   1.208       .  T
C427        C614   1.416       .  S
C428        C429   1.206       .  T
C428        C613   1.413       .  S
C429        C600   1.436       .  S
C430        C431   1.223       .  T
C431        C432   1.440       .  S
C432        C433   1.223       .  T
C434        C435   1.351       .  D
C435        H437   1.083       .  S
C438        C439   1.351       .  D
C439        H441   1.088       .  S
C442        C443   1.343       .  D
C442        H444   1.084       .  S
C446        C447   1.341       .  D
C447        H449   1.086       .  S
C450        C451   1.343       .  D
C450        H638   1.089       .  S
C451        H453   1.090       .  S
H452        C636   1.089       .  S
C454        C455   1.343       .  D
C454        H642   1.086       .  S
C455        H457   1.087       .  S
H456        C640   1.089       .  S
C458        C645   1.349       .  D
C458        H646   1.088       .  S
C459        C644   1.343       .  D
C459        H647   1.089       .  S
H460        C644   1.087       .  S
H461        C645   1.089       .  S
C462        C463   1.341   1_565  D
C462        H650   1.084       .  S
C463        H465   1.085       .  S
H464        C648   1.087       .  S
O466       Co486   2.107   1_556  S
O466        C660   1.296   1_545  A
O467        C475   1.267       .  A
O468       Co488   2.026   1_556  S
O469        C477   1.268       .  A
O470        C476   1.259   1_655  A
O471       Co486   2.022   1_556  S
O472        C661   1.280   1_554  A
O473       Co488   2.026   1_556  S
O473        C474   1.276       .  A
C474        O652   1.269       .  A
C474        C548   1.481       .  S
C475        O658   1.240       .  A
C475        C543   1.460       .  S
O478        C491   1.253       .  A
O479       Co487   2.034       .  S
O479        C492   1.279   1_655  A
O480        C679   1.293       .  A
O481       Co489   1.970   1_565  S
O481        C680   1.265       .  A
O482       Co487   1.999       .  S
O482        C494   1.274       .  A
O483        C493   1.282       .  A
O484       Co489   1.886       .  S
Co486       O490   2.005   1_554  S
Co488       O676   2.045   1_554  S
O490       Co674   2.001   1_545  S
C491        C535   1.485       .  S
C493        O666   1.302   1_545  A
C493        C556   1.479       .  S
C494        O667   1.269       .  A
C494        C551   1.480       .  S
C495        N496   1.373       .  A
C495        N500   1.366       .  A
C495        C523   1.460       .  S
N496        C497   1.369       .  A
C497        C540   1.491       .  S
C497        N498   1.352       .  A
N498        C499   1.353       .  A
C499        C536   1.478       .  S
C499        N500   1.361       .  A
C501        N502   1.364       .  A
C501        N506   1.370       .  A
C501        C526   1.461       .  S
N502        C503   1.363       .  A
C503        C531   1.474       .  S
C503        N504   1.349       .  A
N504        C505   1.350       .  A
C505        C528   1.482       .  S
C505        N506   1.369       .  A
C507        N508   1.364   1_545  A
C507        N512   1.365       .  A
C507        C708   1.448       .  S
N508        C509   1.362       .  A
C509        C552   1.471       .  S
C509        N510   1.352   1_565  A
N510        C511   1.350       .  A
C511        C555   1.474       .  S
C511        N512   1.363       .  A
C513        N514   1.349       .  A
C513        N518   1.358       .  A
C513        C519   1.424       .  S
N514        C515   1.347       .  A
C515        C544   1.464       .  S
C515        N516   1.364       .  A
N516        C517   1.363       .  A
C517        C547   1.482       .  S
C517        N518   1.360       .  A
C519        C706   1.200       .  T
C520        C705   1.213       .  T
C520        C707   1.423       .  S
C521        C522   1.200       .  T
C521        C706   1.403       .  S
C522        C693   1.427       .  S
C523        C524   1.221       .  T
C524        C525   1.436       .  S
C525        C526   1.221       .  T
C527        C528   1.338       .  D
C528        H530   1.086       .  S
C531        C532   1.339       .  D
C532        H534   1.085       .  S
C535        C536   1.346       .  D
C535        H537   1.090       .  S
C539        C540   1.343       .  D
C540        H542   1.087       .  S
C543        C544   1.327       .  D
C543        H731   1.090       .  S
C544        H546   1.088       .  S
H545        C729   1.084       .  S
C547        C548   1.351       .  D
C547        H735   1.090       .  S
C548        H550   1.089       .  S
H549        C733   1.085       .  S
C551        C738   1.348       .  D
C551        H739   1.086       .  S
C552        C737   1.341       .  D
C552        H740   1.086       .  S
H553        C737   1.085       .  S
H554        C738   1.087       .  S
C555        C556   1.338       .  D
C555        H743   1.086       .  S
C556        H558   1.086   1_545  S
H557        C741   1.086       .  S
O559       Co579   2.120       .  S
O560       Co673   1.981       .  S
O560        C568   1.260   1_565  A
O561       Co581   2.092       .  S
O562       Co675   2.028       .  S
O562        C570   1.273   1_655  A
O563       Co673   1.968       .  S
O563        C569   1.266   1_655  A
O564       Co579   2.021       .  S
O565       Co675   2.011       .  S
O566       Co581   2.009       .  S
O566        C567   1.263       .  A
C567        C641   1.478       .  S
C568        C636   1.476       .  S
O571       Co672   2.109   1_554  S
O571        C584   1.296       .  A
O572       Co580   2.128       .  S
O572        C585   1.304   1_655  A
O573       Co674   2.112   1_554  S
O574       Co582   1.957       .  S
O575       Co580   1.907       .  S
O575        C587   1.280       .  A
O576       Co672   2.020   1_554  S
O576        C586   1.267       .  A
O577       Co582   1.925       .  S
O578       Co674   2.028   1_554  S
Co579       O664   1.971       .  S
Co579       O669   1.891       .  S
Co579       O583   2.000       .  S
Co580       O653   2.067   1_564  S
Co580       O656   1.953   1_554  S
Co581       O666   2.088       .  S
Co581       O671   1.906       .  S
Co582       O655   2.077   1_554  S
Co582       O658   1.934   1_554  S
C584        C628   1.469       .  S
C586        C649   1.486       .  S
C587        C644   1.480       .  S
C588        N589   1.363       .  A
C588        N593   1.358       .  A
C588        C616   1.442       .  S
N589        C590   1.365       .  A
C590        C633   1.483       .  S
C590        N591   1.357       .  A
N591        C592   1.357       .  A
C592        C629   1.469       .  S
C592        N593   1.355       .  A
C594        N595   1.355       .  A
C594        N599   1.357       .  A
C594        C619   1.443       .  S
N595        C596   1.358       .  A
C596        C624   1.483       .  S
C596        N597   1.368       .  A
N597        C598   1.368       .  A
C598        C621   1.489       .  S
C598        N599   1.361       .  A
C600        N601   1.358       .  A
C600        N605   1.355       .  A
N601        C602   1.362       .  A
C602        C645   1.484       .  S
C602        N603   1.365       .  A
N603        C604   1.363       .  A
C604        C648   1.481       .  S
C604        N605   1.355       .  A
C606        N607   1.356       .  A
C606        N611   1.362       .  A
C606        C612   1.439       .  S
N607        C608   1.355       .  A
C608        C637   1.477       .  S
C608        N609   1.360       .  A
N609        C610   1.360       .  A
C610        C640   1.483       .  S
C610        N611   1.364       .  A
C614        C615   1.208       .  T
C616        C617   1.210       .  T
C617        C618   1.419       .  S
C618        C619   1.210       .  T
C620        C621   1.348       .  D
C621        H623   1.086       .  S
C624        C625   1.346       .  D
C625        H627   1.082       .  S
C628        C629   1.338       .  D
C628        H630   1.087       .  S
C632        C633   1.342       .  D
C633        H635   1.086       .  S
C636        C637   1.342   1_545  D
C637        H639   1.089       .  S
C640        C641   1.344       .  D
C641        H643   1.088   1_565  S
C648        C649   1.344       .  D
C649        H651   1.087       .  S
O652       Co672   1.979       .  S
O653        C661   1.295       .  A
O654       Co674   1.972       .  S
O655        C663   1.295   1_655  A
O656        C662   1.259       .  A
O657       Co672   1.882       .  S
O659       Co674   1.896       .  S
O659        C660   1.267       .  A
C660        C734   1.476       .  S
C661        C729   1.483       .  S
O664        C677   1.267       .  A
O665       Co673   2.006       .  S
O665        C678   1.269       .  A
O667       Co675   1.982       .  S
O668       Co673   2.032       .  S
O668        C680   1.282       .  A
O669        C679   1.262       .  A
O670       Co675   1.862       .  S
Co672       O676   1.995       .  S
C677        C721   1.486       .  S
C679        C742   1.466       .  S
C680        C737   1.477       .  S
C681        N682   1.364       .  A
C681        N686   1.368       .  A
C681        C709   1.450       .  S
N682        C683   1.360       .  A
C683        C726   1.475       .  S
C683        N684   1.353       .  A
N684        C685   1.354       .  A
C685        C722   1.484       .  S
C685        N686   1.365       .  A
C687        N688   1.365       .  A
C687        N692   1.362       .  A
C687        C712   1.449       .  S
N688        C689   1.365       .  A
C689        C717   1.481       .  S
C689        N690   1.355       .  A
N690        C691   1.354       .  A
C691        C714   1.474       .  S
C691        N692   1.360       .  A
C693        N694   1.360       .  A
C693        N698   1.356       .  A
N694        C695   1.359       .  A
C695        C738   1.471       .  S
C695        N696   1.357       .  A
N696        C697   1.354       .  A
C697        C741   1.467       .  S
C697        N698   1.354       .  A
C699        N700   1.360       .  A
C699        N704   1.360       .  A
C699        C705   1.447       .  S
N700        C701   1.362       .  A
C701        C730   1.482       .  S
C701        N702   1.359       .  A
N702        C703   1.359       .  A
C703        C733   1.473       .  S
C703        N704   1.361       .  A
C707        C708   1.213       .  T
C709        C710   1.214       .  T
C710        C711   1.425       .  S
C711        C712   1.214       .  T
C713        C714   1.342       .  D
C714        H716   1.084       .  S
C717        C718   1.344       .  D
C718        H720   1.085       .  S
C721        C722   1.344       .  D
C721        H723   1.085       .  S
C725        C726   1.344       .  D
C726        H728   1.086       .  S
C729        C730   1.351       .  D
C730        H732   1.084       .  S
C733        C734   1.344   1_545  D
C734        H736   1.085       .  S
C741        C742   1.341       .  D
C742        H744   1.086       .  S
