geometry optimzed in LAMMPS
_audit_creation_date              2020-12-01 
_audit_creation_method            'lammps2cif' 
_symmetry_space_group_name_H-M    'P1' 
_symmetry_Int_Tables_number       1 
_symmetry_cell_setting            triclinic 
loop_ 
_symmetry_equiv_pos_as_xyz 
  x,y,z 
_cell_length_a                    31.0418067 
_cell_length_b                    33.43764796641444 
_cell_length_c                    29.201975544370693 
_cell_angle_alpha                 116.42688892651168 
_cell_angle_beta                  75.58060806143124 
_cell_angle_gamma                 120.5689681030475 
loop_ 
_atom_site_label 
_atom_site_type_symbol 
_atom_site_fract_x 
_atom_site_fract_y 
_atom_site_fract_z 
_atom_site_charge 
N1          N  0.86619473  0.37525994  0.99730890    -0.00200
C2          C  0.91604288  0.39186590  0.99816755     0.02300
C3          C  0.94013491  0.40687687  0.27264808    -0.20500
C4          C  0.89960790  0.38592256  0.24383086    -0.20700
C5          C  0.85741295  0.37028101  0.27425666     0.02200
H6          H  0.97916129  0.42448359  0.26131736     0.16000
H7          H  0.90085864  0.38448139  0.20577442     0.16100
N8          N  0.55605216  0.06689416  0.24036079    -0.00200
C9          C  0.52715376  0.01754283  0.23124925     0.02300
C10         C  0.50260524  0.99280340  0.18600113    -0.20500
C11         C  0.51803153  0.02837807  0.16575031    -0.20700
C12         C  0.55134477  0.07345948  0.19979900     0.02200
H13         H  0.47742809  0.95311430  0.16890900     0.16000
H14         H  0.50782934  0.02149873  0.12914763     0.16100
N15         N  0.58514056  0.41713294  0.37644586    -0.00200
C16         C  0.56737329  0.45078693  0.39143762     0.02300
C17         C  0.56917303  0.48111733  0.09791690    -0.20500
C18         C  0.58646090  0.46301254  0.11958126    -0.20700
C19         C  0.60865064  0.43586159  0.08032645     0.02200
H20         H  0.54838095  0.50243375  0.11731786     0.16000
H21         H  0.58243659  0.46849635  0.15954234     0.16100
O22         O  0.73605248  0.27301542  0.14553837    -0.82100
O23         O  0.63888941  0.20041094  0.15277444    -0.79200
C24         C  0.59162613  0.17800232  0.15354582     1.01300
O25         O  0.56742808  0.19227050  0.14094022    -0.79200
O26         O  0.58770529  0.28481839  0.21896177    -0.81800
C27         C  0.61179759  0.33080843  0.24618784     1.05900
O28         O  0.64867055  0.36032993  0.22711948    -0.74600
O29         O  0.72511640  0.33466005  0.20917789    -0.74800
C30         C  0.74768088  0.30800752  0.18898668     1.05800
O31         O  0.71217441  0.26697735  0.05451639    -0.82100
O32         O  0.61988557  0.18827399  0.05528009    -0.79200
C33         C  0.59194081  0.19660564  0.03962119     1.01400
O34         O  0.58216896  0.23288256  0.06768529    -0.79200
O35         O  0.59057465  0.32267032  0.14775299    -0.81800
C36         C  0.62368051  0.35546040  0.13083266     1.05800
O37         O  0.66847050  0.36302936  0.12524560    -0.74600
O38         O  0.74872075  0.34392332  0.11156590    -0.74800
C39         C  0.74670239  0.31151730  0.06661776     1.05800
Cr40       Cr  0.67502639  0.23569560  0.10490385     1.93700
Cr41       Cr  0.58708110  0.25991424  0.14340554     1.93200
Cr42       Cr  0.69436168  0.34547321  0.16614586     1.39100
O43         O  0.65241757  0.28057162  0.13830698    -1.19900
N44         N  0.15371128  0.55680413  0.02103208    -0.00200
C45         C  0.10449425  0.54289347  0.03345797     0.02300
C46         C  0.09861328  0.57516901  0.34401751    -0.20500
C47         C  0.13847146  0.59786698  0.31561735    -0.20700
C48         C  0.17827436  0.59444727  0.32376895     0.02200
H49         H  0.06044138  0.56778345  0.34360285     0.16000
H50         H  0.13729723  0.61141335  0.28871841     0.16100
N51         N  0.48664333  0.84464655  0.35438796    -0.00200
C52         C  0.51520594  0.89443386  0.36568632     0.02300
C53         C  0.53347763  0.92120887  0.07229899    -0.20500
C54         C  0.51927502  0.88457939  0.09077914    -0.20700
C55         C  0.48445496  0.84027810  0.05748629     0.02200
H56         H  0.55937043  0.96063331  0.08957985     0.16000
H57         H  0.53114134  0.89035577  0.12601239     0.16100
N58         N  0.44497392  0.51787791  0.26299377    -0.00200
C59         C  0.46991277  0.49065679  0.24943958     0.02300
C60         C  0.46415025  0.45972651  0.19841736    -0.20500
C61         C  0.43529044  0.46905431  0.17944414    -0.20700
C62         C  0.42445601  0.50558101  0.21982464     0.02200
H63         H  0.47974620  0.43376359  0.17714202     0.16000
H64         H  0.42464443  0.45183407  0.14004828     0.16100
O65         O  0.39246349  0.71729375  0.10948965    -0.82100
O66         O  0.29424491  0.65933565  0.12440654    -0.79200
C67         C  0.26971709  0.61445778  0.09486124     1.01300
O68         O  0.27781554  0.57973890  0.09101660    -0.79200
O69         O  0.35243893  0.55233271  0.06731749    -0.81800
C70         C  0.38760995  0.57243808  0.03903357     1.05900
O71         O  0.42006746  0.61832526  0.05666442    -0.74600
O72         O  0.45978065  0.72115722  0.12397086    -0.74800
C73         C  0.43928898  0.73623933  0.10772240     1.05800
O74         O  0.41133433  0.74070704  0.21438764    -0.82100
O75         O  0.31208606  0.68114817  0.22590766    -0.79200
C76         C  0.28143959  0.63983972  0.22998965     1.01400
O77         O  0.27888133  0.59862696  0.19632885    -0.79000
O78         O  0.35287653  0.57170475  0.17645614    -0.81800
C79         C  0.39373920  0.57017948  0.16131572     1.05800
O80         O  0.42333943  0.59403647  0.13418883    -0.74600
O81         O  0.44307115  0.69151765  0.20575429    -0.74800
C82         C  0.43651746  0.73021129  0.23163545     1.05800
Cr83       Cr  0.35379249  0.69518701  0.16645568     1.93700
Cr84       Cr  0.31971420  0.58091353  0.13371445     1.93200
Cr85       Cr  0.43100563  0.65542560  0.13130613     1.39100
O86         O  0.36717244  0.64353787  0.14364949    -1.19900
C87         C  0.40145868  0.53284036  0.21435798    -0.13200
C88         C  0.40695273  0.53763609  0.16970703    -0.28400
H89         H  0.38501814  0.55305140  0.24757050     0.15800
H90         H  0.42828394  0.52172856  0.13846894     0.16400
C91         C  0.38997895  0.53995319  0.98504333    -0.13200
C92         C  0.44167031  0.55311719  0.31340893    -0.28400
H93         H  0.35463420  0.51115795  0.96659562     0.15800
H94         H  0.46728170  0.56327642  0.98170275     0.16400
C95         C  0.46010747  0.76464443  0.28177127    -0.13200
C96         C  0.45871504  0.80879275  0.30851234    -0.28400
H97         H  0.48088044  0.75463923  0.29605626     0.15800
H98         H  0.44077783  0.82030912  0.29260049     0.16400
C99         C  0.45325735  0.79316937  0.06704450    -0.13200
C100        C  0.47102199  0.77896762  0.09140999    -0.28400
H101        H  0.41492535  0.77025011  0.05434343     0.15800
H102        H  0.51021036  0.80050233  0.10132666     0.16400
C103        C  0.23189356  0.60420166  0.06369080    -0.13200
C104        C  0.18977243  0.56059711  0.04778229    -0.28400
H105        H  0.23719007  0.63565440  0.05648811     0.15800
H106        H  0.18070697  0.53023416  0.05906980     0.16400
C107        C  0.24527437  0.63963941  0.27341211    -0.13200
C108        C  0.22434623  0.60288012  0.29125201    -0.28400
H109        H  0.23293618  0.66844501  0.28867222     0.15800
H110        H  0.23888877  0.57604633  0.27876247     0.16400
C111        C  0.49839609  0.49239761  0.28287893    -0.15300
C112        C  0.52162973  0.48886160  0.30708292     0.08800
C113        C  0.54528893  0.47951722  0.33384035     0.10600
C114        C  0.55977817  0.46788558  0.35827927    -0.16100
C115        C  0.60850307  0.38654112  0.12202514    -0.13200
C116        C  0.62903998  0.40684870  0.08643703    -0.28400
H117        H  0.57592052  0.38991671  0.14425387     0.15800
H118        H  0.65842122  0.39983102  0.06037384     0.16400
C119        C  0.59478807  0.35014237  0.30007884    -0.13200
C120        C  0.60721695  0.39917186  0.32660985    -0.28400
H121        H  0.56806977  0.32298802  0.31681059     0.15800
H122        H  0.63030263  0.42557023  0.30793220     0.16400
C123        C  0.52427962  0.99314948  0.26258785    -0.15300
C124        C  0.52236734  0.97082768  0.28648112     0.08800
C125        C  0.52026071  0.94363948  0.31310157     0.10600
C126        C  0.51825522  0.92063010  0.33623813    -0.16100
C127        C  0.56302185  0.13265255  0.16519712    -0.13200
C128        C  0.58179929  0.12032138  0.19036960    -0.28400
H129        H  0.52435353  0.10895845  0.15343914     0.15800
H130        H  0.61916735  0.14543734  0.20549962     0.16400
C131        C  0.58369304  0.10474717  0.28593764    -0.13200
C132        C  0.56897017  0.16169689  0.98932620    -0.28400
H133        H  0.60094414  0.09468964  0.30443474     0.15800
H134        H  0.54838343  0.17095934  0.97382887     0.16400
C135        C  0.94570164  0.41564588  0.04234813    -0.15300
C136        C  0.98391647  0.44374633  0.06577388     0.08800
C137        C  0.03435414  0.48110688  0.07328922     0.10600
C138        C  0.07317493  0.51232169  0.06280680    -0.16100
C139        C  0.79183204  0.31973441  0.21200396    -0.13200
C140        C  0.80624881  0.35194232  0.25979075    -0.28400
H141        H  0.81585098  0.30332410  0.18671821     0.15800
H142        H  0.78200441  0.36681935  0.28712905     0.16400
C143        C  0.78531256  0.32460562  0.02744842    -0.13200
C144        C  0.82965055  0.36638376  0.03788318    -0.28400
H145        H  0.77792464  0.29718149  0.98840572     0.15800
H146        H  0.83958322  0.39178226  0.07727018     0.16400
N147        N  0.87065512  0.38022832  0.32046500    -0.00200
C148        C  0.92130670  0.40306272  0.31940311     0.02300
C149        C  0.94293116  0.40499415  0.61117785    -0.20500
C150        C  0.90376260  0.37907636  0.57898072    -0.20700
C151        C  0.86030209  0.36672842  0.60882207     0.02200
H152        H  0.98233010  0.42248948  0.60102387     0.16000
H153        H  0.90680075  0.37291563  0.53889784     0.16100
N154        N  0.56005713  0.07774370  0.58528888    -0.00200
C155        C  0.53296984  0.02868117  0.57853343     0.02300
C156        C  0.51272572  0.00009874  0.53067722    -0.20500
C157        C  0.52883291  0.03285605  0.50658104    -0.20700
C158        C  0.55840852  0.08030032  0.54086535     0.02200
H159        H  0.49023373  0.95972466  0.51441529     0.16000
H160        H  0.52193667  0.02260921  0.46739039     0.16100
N161        N  0.59195392  0.41878825  0.68542708    -0.00200
C162        C  0.57446807  0.45235182  0.69877618     0.02300
C163        C  0.54651195  0.45815482  0.44023312    -0.20500
C164        C  0.55147227  0.42784260  0.45621474    -0.20700
C165        C  0.57538784  0.40338476  0.41663369     0.02200
H166        H  0.52746241  0.48105409  0.46088937     0.16000
H167        H  0.53838568  0.42346320  0.49247898     0.16100
O168        O  0.74785208  0.26766340  0.47129440    -0.82100
O169        O  0.65017400  0.19555052  0.47714453    -0.79200
C170        C  0.60286794  0.17449225  0.47839087     1.01300
O171        O  0.57951039  0.18748694  0.46256234    -0.79200
O172        O  0.59711767  0.28134977  0.53515955    -0.81800
C173        C  0.62074752  0.32761423  0.56130165     1.05900
O174        O  0.65972700  0.35573050  0.54279939    -0.74600
O175        O  0.73271369  0.32728586  0.53354168    -0.74800
C176        C  0.75629986  0.30163028  0.51558804     1.05800
O177        O  0.72722973  0.25936876  0.37686003    -0.82100
O178        O  0.63448768  0.17932218  0.37660541    -0.79200
C179        C  0.60722602  0.18644096  0.35843854     1.01400
O180        O  0.59834556  0.22350426  0.38358972    -0.79200
O181        O  0.60721580  0.31473221  0.45610737    -0.81800
C182        C  0.64305638  0.34628197  0.43898796     1.05800
O183        O  0.68738689  0.35533582  0.44050161    -0.74600
O184        O  0.76392237  0.33544713  0.43513980    -0.74800
C185        C  0.76128248  0.30426019  0.38943649     1.05800
Cr186      Cr  0.68831801  0.22887584  0.42787971     1.93700
Cr187      Cr  0.60053286  0.25346491  0.45934668     1.93200
Cr188      Cr  0.70757120  0.33847239  0.48612453     1.39100
O189        O  0.66547986  0.27371973  0.45801658    -1.19900
N190        N  0.16455538  0.57136815  0.35688238    -0.00200
C191        C  0.11555986  0.55911686  0.36874253     0.02300
C192        C  0.09563384  0.59885744  0.68919451    -0.20500
C193        C  0.13565018  0.61587093  0.65786246    -0.20700
C194        C  0.17339108  0.61055360  0.66772757     0.02200
H195        H  0.05837988  0.59349562  0.68815562     0.16000
H196        H  0.13582694  0.62716124  0.62833122     0.16100
N197        N  0.47248237  0.85415176  0.70575209    -0.00200
C198        C  0.50281281  0.90406369  0.72008568     0.02300
C199        C  0.53943961  0.91746079  0.41081426    -0.20500
C200        C  0.52433033  0.88026004  0.42860980    -0.20700
C201        C  0.49150454  0.83587911  0.39331067     0.02200
H202        H  0.56406586  0.95706083  0.42953013     0.16000
H203        H  0.53395520  0.88572169  0.46482763     0.16100
N204        N  0.42702082  0.49900044  0.57752269    -0.00200
C205        C  0.44881467  0.46853959  0.56052396     0.02300
C206        C  0.43048860  0.43085814  0.51373245    -0.20500
C207        C  0.39635792  0.43884516  0.50108612    -0.20700
C208        C  0.39518947  0.48105161  0.54073754     0.02200
H209        H  0.44083824  0.40096954  0.49119064     0.16000
H210        H  0.37634661  0.41757179  0.46578746     0.16100
O211        O  0.39505603  0.71998135  0.45179140    -0.82100
O212        O  0.29540383  0.66603829  0.46915717    -0.79200
C213        C  0.27504900  0.62271118  0.43518636     1.01300
O214        O  0.28474356  0.58846088  0.42947673    -0.79200
O215        O  0.35386001  0.55689714  0.41879644    -0.81800
C216        C  0.39188076  0.57601571  0.39231037     1.05900
O217        O  0.42439294  0.62153228  0.41080833    -0.74600
O218        O  0.46092390  0.72387462  0.47077660    -0.74800
C219        C  0.44177330  0.73701377  0.45031872     1.05800
O220        O  0.41272243  0.75083707  0.55821369    -0.82100
O221        O  0.31413200  0.69110189  0.57127987    -0.79200
C222        C  0.27894986  0.65015570  0.57296671     1.01400
O223        O  0.27282495  0.60837171  0.53733473    -0.79000
O224        O  0.34211650  0.57808844  0.52851778    -0.81800
C225        C  0.38478704  0.58098497  0.52434040     1.05800
O226        O  0.41896301  0.60373636  0.49835087    -0.74600
O227        O  0.43936596  0.70170669  0.55945731    -0.74800
C228        C  0.43453922  0.74140839  0.58054994     1.05800
Cr229      Cr  0.35532113  0.70248457  0.51077002     1.93700
Cr230      Cr  0.31761968  0.58814683  0.47958202     1.93200
Cr231      Cr  0.43054384  0.66171156  0.48526322     1.39100
O232        O  0.36714762  0.65039973  0.49173532    -1.19900
C233        C  0.37076629  0.50754642  0.53689209    -0.13200
C234        C  0.39637359  0.55706854  0.54793492    -0.28400
H235        H  0.33727775  0.48540978  0.51449119     0.15800
H236        H  0.43322582  0.57790847  0.56402862     0.16400
C237        C  0.39750828  0.54353368  0.33911304    -0.13200
C238        C  0.43010152  0.53645838  0.62847803    -0.28400
H239        H  0.36458687  0.50907248  0.32099878     0.15800
H240        H  0.47584549  0.58495427  0.33214034     0.16400
C241        C  0.45531860  0.77730877  0.63122099    -0.13200
C242        C  0.45122159  0.82015329  0.65626934    -0.28400
H243        H  0.47461376  0.76828635  0.64860642     0.15800
H244        H  0.43489157  0.83118107  0.63794249     0.16400
C245        C  0.45929253  0.78886100  0.40234986    -0.13200
C246        C  0.47525530  0.77639130  0.43014637    -0.28400
H247        H  0.42138911  0.76595343  0.38847029     0.15800
H248        H  0.51409182  0.79798778  0.44129689     0.16400
C249        C  0.24067349  0.61436888  0.40153545    -0.13200
C250        C  0.19833997  0.57170806  0.38337290    -0.28400
H251        H  0.24798522  0.64720501  0.39566708     0.15800
H252        H  0.18692725  0.54011168  0.39362969     0.16400
C253        C  0.24244501  0.65175942  0.61603886    -0.13200
C254        C  0.21889809  0.61536470  0.63463125    -0.28400
H255        H  0.23320504  0.68275782  0.63157612     0.15800
H256        H  0.22999025  0.58589271  0.62099762     0.16400
C257        C  0.48379223  0.47225502  0.58839784    -0.15300
C258        C  0.51130169  0.47185651  0.61071109     0.08800
C259        C  0.53965782  0.46767266  0.63775297     0.10600
C260        C  0.55896534  0.46162266  0.66352945    -0.16100
C261        C  0.63301940  0.37490108  0.42006646    -0.13200
C262        C  0.58608714  0.36678092  0.41987442    -0.28400
H263        H  0.66433778  0.40556053  0.41046556     0.15800
H264        H  0.55511949  0.33798786  0.43234990     0.16400
C265        C  0.60155248  0.34898011  0.61337867    -0.13200
C266        C  0.61154838  0.39757948  0.63530920    -0.28400
H267        H  0.57613586  0.32367379  0.63258467     0.15800
H268        H  0.63273801  0.42141928  0.61354479     0.16400
C269        C  0.52813631  0.00780325  0.61448521    -0.15300
C270        C  0.52355158  0.98653124  0.64094660     0.08800
C271        C  0.51744369  0.95857945  0.66888339     0.10600
C272        C  0.51141248  0.93360726  0.69178052    -0.16100
C273        C  0.57325213  0.13191707  0.49463286    -0.13200
C274        C  0.58931694  0.12524510  0.52786702    -0.28400
H275        H  0.53583764  0.10582372  0.47977940     0.15800
H276        H  0.62499907  0.15314706  0.54604619     0.16400
C277        C  0.58557972  0.11813378  0.63108680    -0.13200
C278        C  0.58345808  0.14964835  0.30898482    -0.28400
H279        H  0.60155797  0.11003968  0.65305878     0.15800
H280        H  0.56268152  0.15817777  0.29281814     0.16400
C281        C  0.95344106  0.42521765  0.36113079    -0.15300
C282        C  0.99142374  0.45200771  0.38495530     0.08800
C283        C  0.04136141  0.48955027  0.39652768     0.10600
C284        C  0.08109700  0.52322582  0.39148199    -0.16100
C285        C  0.79826728  0.31374942  0.54235105    -0.13200
C286        C  0.81023787  0.34684280  0.59042719    -0.28400
H287        H  0.82302781  0.29733295  0.51965730     0.15800
H288        H  0.78501707  0.36185661  0.61501290     0.16400
C289        C  0.79798559  0.32010357  0.35018405    -0.13200
C290        C  0.83762690  0.36604395  0.36091153    -0.28400
H291        H  0.79192591  0.29326406  0.31083983     0.15800
H292        H  0.84629474  0.39209701  0.40031979     0.16400
N293        N  0.87153998  0.38347403  0.65811058    -0.00200
C294        C  0.92213589  0.40736639  0.65935609     0.02300
C295        C  0.93824108  0.39089358  0.95071253    -0.20500
C296        C  0.90092380  0.37339071  0.91938855    -0.20700
C297        C  0.85711364  0.36449185  0.94899228     0.02200
H298        H  0.97776764  0.40392589  0.94064119     0.16000
H299        H  0.90578912  0.37022319  0.88011136     0.16100
N300        N  0.54466099  0.08102569  0.91748681    -0.00200
C301        C  0.51557362  0.03125111  0.90650002     0.02300
C302        C  0.49282721  0.00830074  0.86045474    -0.20500
C303        C  0.51021678  0.04515502  0.84142904    -0.20700
C304        C  0.54260060  0.08952319  0.87712001     0.02200
H305        H  0.46810759  0.96875445  0.84166278     0.16000
H306        H  0.50236103  0.03933785  0.80425884     0.16100
N307        N  0.60584923  0.43734613  0.03559143    -0.00200
C308        C  0.58163458  0.46479384  0.04647763     0.02300
C309        C  0.56529034  0.47067259  0.75087050    -0.20500
C310        C  0.57849805  0.44816053  0.77073287    -0.20700
C311        C  0.59466817  0.41655295  0.72980076     0.02200
H312        H  0.54915712  0.49620768  0.77188891     0.16000
H313        H  0.57504178  0.45295364  0.81044208     0.16100
O314        O  0.74471570  0.27816852  0.81359613    -0.82100
O315        O  0.64367797  0.21100133  0.82289903    -0.79200
C316        C  0.59639979  0.19195891  0.82299869     1.01300
O317        O  0.57576893  0.20692875  0.80620177    -0.79200
O318        O  0.59331731  0.30200917  0.87473819    -0.81800
C319        C  0.62100048  0.34605325  0.90388637     1.05900
O320        O  0.66413325  0.37217115  0.88898909    -0.74600
O321        O  0.73287866  0.33878320  0.87677936    -0.74800
C322        C  0.75485688  0.31172351  0.85769739     1.05800
O323        O  0.72490826  0.27117669  0.72078126    -0.82100
O324        O  0.63077515  0.19332425  0.72208316    -0.79200
C325        C  0.60719689  0.20114396  0.70037066     1.01400
O326        O  0.60079369  0.23988835  0.72267491    -0.79200
O327        O  0.61164817  0.33298182  0.79161518    -0.81800
C328        C  0.65050179  0.36839872  0.78262932     1.05800
O329        O  0.69343997  0.37776646  0.79004192    -0.74600
O330        O  0.76399748  0.34809903  0.77759756    -0.74800
C331        C  0.76000723  0.31559394  0.73224113     1.05800
Cr332      Cr  0.68452438  0.24246320  0.77253072     1.93700
Cr333      Cr  0.60069244  0.27213579  0.79907638     1.93200
Cr334      Cr  0.70975379  0.35379622  0.83111634     1.39100
O335        O  0.66488031  0.28997148  0.80136936    -1.19900
N336        N  0.15809007  0.59127989  0.70449492    -0.00200
C337        C  0.11042879  0.58429325  0.71746310     0.02300
C338        C  0.08416426  0.55285686  0.00521426    -0.20500
C339        C  0.12210573  0.57350558  0.97408562    -0.20700
C340        C  0.16423067  0.57504317  0.98422282     0.02200
H341        H  0.04521884  0.54327086  0.00499457     0.16000
H342        H  0.11843283  0.58288584  0.94471735     0.16100
N343        N  0.47761798  0.84849730  0.01900826    -0.00200
C344        C  0.50671134  0.89805000  0.02875530     0.02300
C345        C  0.52352884  0.92324424  0.76650048    -0.20500
C346        C  0.50378374  0.88359169  0.78200010    -0.20700
C347        C  0.47214470  0.84167260  0.74398925     0.02200
H348        H  0.54947846  0.96184481  0.78717966     0.16000
H349        H  0.51056917  0.88550747  0.81769830     0.16100
N350        N  0.43116425  0.49940698  0.91191013    -0.00200
C351        C  0.45498150  0.47111002  0.89856499     0.02300
C352        C  0.44088590  0.43334378  0.85082990    -0.20500
C353        C  0.40719881  0.43873207  0.83388368    -0.20700
C354        C  0.40219054  0.47969614  0.87188236     0.02200
H355        H  0.45384260  0.40515060  0.83044561     0.16000
H356        H  0.39007767  0.41666064  0.79689429     0.16100
O357        O  0.37808984  0.70674452  0.77813624    -0.82100
O358        O  0.27886715  0.64076347  0.79252210    -0.79200
C359        C  0.26429577  0.59852375  0.75541527     1.01300
O360        O  0.28167378  0.56909623  0.74728180    -0.79200
O361        O  0.35368657  0.54334184  0.74050910    -0.81800
C362        C  0.38688904  0.56395659  0.71180692     1.05900
O363        O  0.41680105  0.61047326  0.72930815    -0.74600
O364        O  0.44740137  0.71209197  0.79124243    -0.74800
C365        C  0.42525977  0.72677951  0.77645986     1.05800
O366        O  0.39768942  0.73453429  0.88234961    -0.82100
O367        O  0.30172044  0.66677331  0.89397944    -0.79200
C368        C  0.26767658  0.62414582  0.89208466     1.01400
O369        O  0.26441275  0.58466262  0.85418460    -0.79000
O370        O  0.34178884  0.56537275  0.84940962    -0.81800
C371        C  0.38598318  0.57157548  0.84477155     1.05800
O372        O  0.41786161  0.59434567  0.81731678    -0.74600
O373        O  0.43405096  0.69098342  0.87831353    -0.74800
C374        C  0.42594482  0.72878757  0.90109158     1.05800
Cr375      Cr  0.34056750  0.68297126  0.83455764     1.93700
Cr376      Cr  0.31404943  0.57087860  0.79914468     1.93200
Cr377      Cr  0.42373451  0.65050662  0.80434428     1.39100
O378        O  0.35908864  0.63479387  0.81273093    -1.19900
C379        C  0.37660203  0.50313614  0.86397895    -0.13200
C380        C  0.40181767  0.55136633  0.86933909    -0.28400
H381        H  0.34163804  0.47882657  0.84379751     0.15800
H382        H  0.43975849  0.57365564  0.88318241     0.16400
C383        C  0.38821682  0.53180839  0.65747686    -0.13200
C384        C  0.43252906  0.53867818  0.96117343    -0.28400
H385        H  0.35293938  0.49977209  0.64145655     0.15800
H386        H  0.46646618  0.56472839  0.64496343     0.16400
C387        C  0.45124432  0.76714936  0.94931524    -0.13200
C388        C  0.44949309  0.81123621  0.97355908    -0.28400
H389        H  0.47371858  0.75964238  0.96453593     0.15800
H390        H  0.43036088  0.82082165  0.95664107     0.16400
C391        C  0.43891976  0.79183330  0.74721554    -0.13200
C392        C  0.45663779  0.77143821  0.76333463    -0.28400
H393        H  0.40009374  0.77234586  0.73667273     0.15800
H394        H  0.49633320  0.79065463  0.77084790     0.16400
C395        C  0.22653110  0.58342377  0.72080016    -0.13200
C396        C  0.19058003  0.59819983  0.73800000    -0.28400
H397        H  0.22775104  0.55921386  0.68109647     0.15800
H398        H  0.18675891  0.61806288  0.77884130     0.16400
C399        C  0.22890055  0.62077257  0.93303937    -0.13200
C400        C  0.21029757  0.58476912  0.95160987    -0.28400
H401        H  0.21409214  0.64758073  0.94710563     0.15800
H402        H  0.22757699  0.56042420  0.94075005     0.16400
C403        C  0.48825775  0.47674817  0.93025290    -0.15300
C404        C  0.51496965  0.47721499  0.95446535     0.08800
C405        C  0.54354959  0.47440178  0.98279034     0.10600
C406        C  0.56404979  0.47041359  0.00948321    -0.16100
C407        C  0.64522472  0.40099938  0.76574187    -0.13200
C408        C  0.60836298  0.38270101  0.73507900    -0.28400
H409        H  0.67051551  0.44105334  0.78059576     0.15800
H410        H  0.58441073  0.34248679  0.71839562     0.16400
C411        C  0.60202891  0.36757641  0.95608454    -0.13200
C412        C  0.62644831  0.41626514  0.98643362    -0.28400
H413        H  0.56646004  0.34352974  0.96947332     0.15800
H414        H  0.66096891  0.44139998  0.97292008     0.16400
C415        C  0.51278853  0.00430868  0.93532259    -0.15300
C416        C  0.51106452  0.97926495  0.95604038     0.08800
C417        C  0.50931005  0.94902306  0.97901581     0.10600
C418        C  0.50796977  0.92428597  0.99990687    -0.16100
C419        C  0.56327412  0.14863447  0.83775348    -0.13200
C420        C  0.57647106  0.13664326  0.86824901    -0.28400
H421        H  0.52578588  0.12558795  0.82275844     0.15800
H422        H  0.61250199  0.16120059  0.88638639     0.16400
C423        C  0.57070065  0.11747053  0.96421515    -0.13200
C424        C  0.58513060  0.16290842  0.65031496    -0.28400
H425        H  0.58787144  0.10656533  0.98177854     0.15800
H426        H  0.56615653  0.17018917  0.63057298     0.16400
C427        C  0.95220550  0.43827288  0.70420037    -0.15300
C428        C  0.98783864  0.47142138  0.73035890     0.08800
C429        C  0.03504395  0.51397386  0.74418826     0.10600
C430        C  0.07373923  0.54927031  0.74039120    -0.16100
C431        C  0.79633490  0.32080350  0.88276532    -0.13200
C432        C  0.80924422  0.35162034  0.93123713    -0.28400
H433        H  0.81909897  0.30236292  0.85873834     0.15800
H434        H  0.78573591  0.36826148  0.95720631     0.16400
C435        C  0.79674613  0.32867257  0.69175852    -0.13200
C436        C  0.83700107  0.37392136  0.69976637    -0.28400
H437        H  0.79064021  0.29947185  0.65362865     0.15800
H438        H  0.84562293  0.40236481  0.73825762     0.16400
loop_ 
_geom_bond_atom_site_label_1 
_geom_bond_atom_site_label_2 
_geom_bond_distance 
_geom_bond_site_symmetry_2 
_ccdc_geom_bond_type 
N1            C2   1.355       .  A
N1          C297   1.357       .  A
N1          C144   1.442   1_556  S
C2          C135   1.442   1_556  S
C2          C295   1.380       .  A
C3            C4   1.374       .  A
C3          C148   1.380       .  A
C3            H6   1.083       .  S
C4            C5   1.384       .  A
C4            H7   1.082       .  S
C5          N147   1.356       .  A
C5          C140   1.480       .  S
N8           C12   1.350       .  A
N8            C9   1.349       .  A
N8          C131   1.440       .  S
C9          C123   1.435   1_545  S
C9           C10   1.378   1_545  A
C10          C11   1.378   1_565  A
C10          H13   1.082       .  S
C11          C12   1.387       .  A
C11          H14   1.082       .  S
C12         C128   1.474       .  S
N15          C16   1.355       .  A
N15         C165   1.357       .  A
N15         C120   1.446       .  S
C16         C114   1.437       .  S
C16         C163   1.379       .  A
C17          C18   1.377       .  A
C17         C308   1.378       .  A
C17          H20   1.083       .  S
C18          C19   1.389       .  A
C18          H21   1.082       .  S
C19         N307   1.355       .  A
C19         C116   1.486       .  S
O22         Cr40   1.988       .  S
O22          C30   1.259       .  A
O23         Cr40   1.986       .  S
O23          C24   1.263       .  A
C24         C127   1.464       .  S
C24          O25   1.259       .  A
O25         Cr41   1.992       .  S
O26         Cr41   1.983       .  S
O26          C27   1.263       .  A
C27         C119   1.484       .  S
C27          O28   1.272       .  A
O28         Cr42   2.025       .  S
O29         Cr42   1.994       .  S
O29          C30   1.263       .  A
C30         C139   1.470       .  S
O31         Cr40   1.972       .  S
O31          C39   1.260       .  A
O32         Cr40   1.993       .  S
O32          C33   1.263       .  A
C33         C132   1.475   1_554  S
C33          O34   1.265       .  A
O34         Cr41   1.995       .  S
O35         Cr41   1.992       .  S
O35          C36   1.259       .  A
C36         C115   1.471       .  S
C36          O37   1.261       .  A
O37         Cr42   2.000       .  S
O38         Cr42   2.017       .  S
O38          C39   1.268       .  A
C39         C143   1.472       .  S
Cr40         O43   1.767       .  S
Cr41         O43   1.769       .  S
Cr42         O43   1.774       .  S
N44          C45   1.354       .  A
N44         C340   1.357   1_554  A
N44         C104   1.443       .  S
C45         C138   1.442       .  S
C45         C338   1.381       .  A
C46          C47   1.374       .  A
C46         C191   1.381       .  A
C46          H49   1.083       .  S
C47          C48   1.382       .  A
C47          H50   1.082       .  S
C48         N190   1.355       .  A
C48         C108   1.476       .  S
N51          C52   1.350       .  A
N51         C201   1.352       .  A
N51          C96   1.441       .  S
C52         C126   1.436       .  S
C52         C199   1.377       .  A
C53          C54   1.381       .  A
C53         C344   1.379       .  A
C53          H56   1.082       .  S
C54          C55   1.386       .  A
C54          H57   1.082       .  S
C55         N343   1.355       .  A
C55          C99   1.484       .  S
N58          C62   1.355       .  A
N58          C59   1.352       .  A
N58          C92   1.439       .  S
C59         C111   1.437       .  S
C59          C60   1.376       .  A
C60          C61   1.376       .  A
C60          H63   1.082       .  S
C61          C62   1.391       .  A
C61          H64   1.082       .  S
C62          C87   1.488       .  S
O65         Cr83   1.988       .  S
O65          C73   1.254       .  A
O66         Cr83   1.982       .  S
O66          C67   1.260       .  A
C67         C103   1.473       .  S
C67          O68   1.261       .  A
O68         Cr84   1.990       .  S
O69         Cr84   2.015       .  S
O69          C70   1.275       .  A
C70          C91   1.473   1_554  S
C70          O71   1.272       .  A
O71         Cr85   1.985       .  S
O72         Cr85   2.000       .  S
O72          C73   1.254       .  A
C73         C100   1.476       .  S
O74         Cr83   2.012       .  S
O74          C82   1.273       .  A
O75         Cr83   1.974       .  S
O75          C76   1.257       .  A
C76         C107   1.469       .  S
C76          O77   1.262       .  A
O77         Cr84   1.986       .  S
O78         Cr84   2.004       .  S
O78          C79   1.254       .  A
C79          C88   1.468       .  S
C79          O80   1.250       .  A
O80         Cr85   1.981       .  S
O81         Cr85   1.983       .  S
O81          C82   1.268       .  A
C82          C95   1.477       .  S
Cr83         O86   1.780       .  S
Cr84         O86   1.781       .  S
Cr85         O86   1.785       .  S
C87          C88   1.343       .  D
C87          H89   1.086       .  S
C88          H90   1.086       .  S
C91         C384   1.343       .  D
C91          H93   1.086       .  S
C92         C237   1.342       .  D
C92         H240   1.086       .  S
H94         C384   1.086       .  S
C95          C96   1.346       .  D
C95          H97   1.086       .  S
C96          H98   1.086       .  S
C99         C100   1.341       .  D
C99         H101   1.086       .  S
C100        H102   1.087       .  S
C103        C104   1.346       .  D
C103        H105   1.087       .  S
C104        H106   1.086       .  S
C107        C108   1.339       .  D
C107        H109   1.087       .  S
C108        H110   1.087       .  S
C111        C112   1.204       .  T
C112        C113   1.409       .  S
C113        C114   1.203       .  T
C115        C116   1.344       .  D
C115        H117   1.087       .  S
C116        H118   1.086       .  S
C119        C120   1.346       .  D
C119        H121   1.085       .  S
C120        H122   1.087       .  S
C123        C124   1.202       .  T
C124        C125   1.407       .  S
C125        C126   1.202       .  T
C127        C128   1.333       .  D
C127        H129   1.087       .  S
C128        H130   1.086       .  S
C131        C278   1.348       .  D
C131        H133   1.087       .  S
C132        C423   1.350       .  D
C132        H134   1.086       .  S
C135        C136   1.207       .  T
C136        C137   1.413   1_655  S
C137        C138   1.207       .  T
C139        C140   1.338       .  D
C139        H141   1.088       .  S
C140        H142   1.086       .  S
C143        C144   1.346       .  D
C143        H145   1.086   1_554  S
C144        H146   1.086       .  S
N147        C148   1.353       .  A
N147        C290   1.439       .  S
C148        C281   1.442       .  S
C149        C294   1.379       .  A
C149        C150   1.373       .  A
C149        H152   1.083       .  S
C150        C151   1.385       .  A
C150        H153   1.082       .  S
C151        N293   1.357       .  A
C151        C286   1.481       .  S
N154        C158   1.352       .  A
N154        C155   1.352       .  A
N154        C277   1.439       .  S
C155        C269   1.442       .  S
C155        C156   1.378       .  A
C156        C157   1.378       .  A
C156        H159   1.082   1_545  S
C157        C158   1.387       .  A
C157        H160   1.082       .  S
C158        C274   1.477       .  S
N161        C311   1.356       .  A
N161        C162   1.353       .  A
N161        C266   1.444       .  S
C162        C260   1.439       .  S
C162        C309   1.379       .  A
C163        C164   1.373       .  A
C163        H166   1.082       .  S
C164        C165   1.380       .  A
C164        H167   1.082       .  S
C165        C262   1.466       .  S
O168       Cr186   1.992       .  S
O168        C176   1.261       .  A
O169       Cr186   1.987       .  S
O169        C170   1.264       .  A
C170        C273   1.466       .  S
C170        O171   1.263       .  A
O171       Cr187   1.998       .  S
O172       Cr187   1.982       .  S
O172        C173   1.260       .  A
C173        C265   1.481       .  S
C173        O174   1.269       .  A
O174       Cr188   2.019       .  S
O175       Cr188   1.991       .  S
O175        C176   1.263       .  A
C176        C285   1.470       .  S
O177       Cr186   1.980       .  S
O177        C185   1.263       .  A
O178       Cr186   2.000       .  S
O178        C179   1.263       .  A
C179        C278   1.473       .  S
C179        O180   1.260       .  A
O180       Cr187   1.984       .  S
O181       Cr187   1.995       .  S
O181        C182   1.265       .  A
C182        C261   1.476       .  S
C182        O183   1.258       .  A
O183       Cr188   1.982       .  S
O184       Cr188   2.009       .  S
O184        C185   1.267       .  A
C185        C289   1.473       .  S
Cr186       O189   1.767       .  S
Cr187       O189   1.766       .  S
Cr188       O189   1.773       .  S
N190        C191   1.353       .  A
N190        C250   1.443       .  S
C191        C284   1.441       .  S
C192        C337   1.380       .  A
C192        C193   1.372       .  A
C192        H195   1.083       .  S
C193        C194   1.383       .  A
C193        H196   1.082       .  S
C194        N336   1.358       .  A
C194        C254   1.477       .  S
N197        C347   1.351       .  A
N197        C198   1.350       .  A
N197        C242   1.437       .  S
C198        C272   1.442       .  S
C198        C345   1.379       .  A
C199        C200   1.378       .  A
C199        H202   1.082       .  S
C200        C201   1.388       .  A
C200        H203   1.082       .  S
C201        C245   1.477       .  S
N204        C208   1.357       .  A
N204        C205   1.351       .  A
N204        C238   1.443       .  S
C205        C257   1.439       .  S
C205        C206   1.380       .  A
C206        C207   1.379       .  A
C206        H209   1.082       .  S
C207        C208   1.382       .  A
C207        H210   1.082       .  S
C208        C233   1.479       .  S
O211       Cr229   1.984       .  S
O211        C219   1.257       .  A
O212       Cr229   1.981       .  S
O212        C213   1.259       .  A
C213        C249   1.469       .  S
C213        O214   1.259       .  A
O214       Cr230   1.988       .  S
O215       Cr230   2.015       .  S
O215        C216   1.272       .  A
C216        C237   1.476       .  S
C216        O217   1.267       .  A
O217       Cr231   1.979       .  S
O218       Cr231   1.995       .  S
O218        C219   1.257       .  A
C219        C246   1.468       .  S
O220       Cr229   2.003       .  S
O220        C228   1.266       .  A
O221       Cr229   1.970       .  S
O221        C222   1.258       .  A
C222        C253   1.470       .  S
C222        O223   1.267       .  A
O223       Cr230   2.002       .  S
O224       Cr230   1.991       .  S
O224        C225   1.256       .  A
C225        C234   1.466       .  S
C225        O226   1.254       .  A
O226       Cr231   1.979       .  S
O227       Cr231   1.975       .  S
O227        C228   1.262       .  A
C228        C241   1.467       .  S
Cr229       O232   1.779       .  S
Cr230       O232   1.784       .  S
Cr231       O232   1.781       .  S
C233        C234   1.338       .  D
C233        H235   1.087       .  S
C234        H236   1.087       .  S
C237        H239   1.087       .  S
C238        C383   1.340       .  D
C238        H386   1.086       .  S
C241        C242   1.345       .  D
C241        H243   1.086       .  S
C242        H244   1.086       .  S
C245        C246   1.338       .  D
C245        H247   1.086       .  S
C246        H248   1.087       .  S
C249        C250   1.345       .  D
C249        H251   1.087       .  S
C250        H252   1.086       .  S
C253        C254   1.340       .  D
C253        H255   1.087       .  S
C254        H256   1.084       .  S
C257        C258   1.204       .  T
C258        C259   1.410       .  S
C259        C260   1.204       .  T
C261        C262   1.340       .  D
C261        H263   1.087       .  S
C262        H264   1.086       .  S
C265        C266   1.344       .  D
C265        H267   1.084       .  S
C266        H268   1.087       .  S
C269        C270   1.206   1_545  T
C270        C271   1.413       .  S
C271        C272   1.206       .  T
C273        C274   1.337       .  D
C273        H275   1.087       .  S
C274        H276   1.086       .  S
C277        C424   1.351       .  D
C277        H279   1.087       .  S
C278        H280   1.086       .  S
C281        C282   1.207       .  T
C282        C283   1.413   1_655  S
C283        C284   1.206       .  T
C285        C286   1.339       .  D
C285        H287   1.088       .  S
C286        H288   1.086       .  S
C289        C290   1.346       .  D
C289        H291   1.086       .  S
C290        H292   1.086       .  S
N293        C294   1.354       .  A
N293        C436   1.442       .  S
C294        C427   1.441       .  S
C295        C296   1.372       .  A
C295        H298   1.083       .  S
C296        C297   1.385       .  A
C296        H299   1.082       .  S
C297        C432   1.482       .  S
N300        C304   1.352       .  A
N300        C301   1.352       .  A
N300        C423   1.438       .  S
C301        C415   1.445       .  S
C301        C302   1.378       .  A
C302        C303   1.379       .  A
C302        H305   1.082   1_545  S
C303        C304   1.388       .  A
C303        H306   1.082       .  S
C304        C420   1.482       .  S
N307        C308   1.353       .  A
N307        C412   1.438   1_554  S
C308        C406   1.442       .  S
C309        C310   1.376       .  A
C309        H312   1.083       .  S
C310        C311   1.383       .  A
C310        H313   1.083       .  S
C311        C408   1.471       .  S
O314       Cr332   1.982       .  S
O314        C322   1.254       .  A
O315       Cr332   1.992       .  S
O315        C316   1.268       .  A
C316        C419   1.470       .  S
C316        O317   1.266       .  A
O317       Cr333   2.001       .  S
O318       Cr333   1.987       .  S
O318        C319   1.262       .  A
C319        C411   1.482       .  S
C319        O320   1.266       .  A
O320       Cr334   2.002       .  S
O321       Cr334   1.996       .  S
O321        C322   1.259       .  A
C322        C431   1.470       .  S
O323       Cr332   1.975       .  S
O323        C331   1.264       .  A
O324       Cr332   1.984       .  S
O324        C325   1.257       .  A
C325        C424   1.478       .  S
C325        O326   1.260       .  A
O326       Cr333   2.000       .  S
O327       Cr333   1.989       .  S
O327        C328   1.262       .  A
C328        C407   1.469       .  S
C328        O329   1.257       .  A
O329       Cr334   1.977       .  S
O330       Cr334   2.016       .  S
O330        C331   1.271       .  A
C331        C435   1.473       .  S
Cr332       O335   1.773       .  S
Cr333       O335   1.776       .  S
Cr334       O335   1.783       .  S
N336        C337   1.355       .  A
N336        C396   1.442       .  S
C337        C430   1.442       .  S
C338        C339   1.374   1_554  A
C338        H341   1.083       .  S
C339        C340   1.382       .  A
C339        H342   1.082       .  S
C340        C400   1.477       .  S
N343        C344   1.352       .  A
N343        C388   1.440   1_554  S
C344        C418   1.445   1_554  S
C345        C346   1.381       .  A
C345        H348   1.082       .  S
C346        C347   1.385       .  A
C346        H349   1.082       .  S
C347        C391   1.481       .  S
N350        C354   1.358       .  A
N350        C351   1.354       .  A
N350        C384   1.445       .  S
C351        C403   1.443       .  S
C351        C352   1.380       .  A
C352        C353   1.378       .  A
C352        H355   1.082       .  S
C353        C354   1.382       .  A
C353        H356   1.082       .  S
C354        C379   1.478       .  S
O357       Cr375   1.993       .  S
O357        C365   1.261       .  A
O358       Cr375   2.012       .  S
O358        C359   1.267       .  A
C359        C395   1.478       .  S
C359        O360   1.258       .  A
O360       Cr376   1.981       .  S
O361       Cr376   1.998       .  S
O361        C362   1.265       .  A
C362        C383   1.473       .  S
C362        O363   1.266       .  A
O363       Cr377   1.993       .  S
O364       Cr377   1.987       .  S
O364        C365   1.257       .  A
C365        C392   1.473       .  S
O366       Cr375   2.011       .  S
O366        C374   1.269       .  A
O367       Cr375   1.972       .  S
O367        C368   1.256       .  A
C368        C399   1.469       .  S
C368        O369   1.264       .  A
O369       Cr376   2.000       .  S
O370       Cr376   1.990       .  S
O370        C371   1.260       .  A
C371        C380   1.469       .  S
C371        O372   1.258       .  A
O372       Cr377   1.988       .  S
O373       Cr377   1.975       .  S
O373        C374   1.263       .  A
C374        C387   1.471       .  S
Cr375       O378   1.783       .  S
Cr376       O378   1.778       .  S
Cr377       O378   1.778       .  S
C379        C380   1.338       .  D
C379        H381   1.087       .  S
C380        H382   1.087       .  S
C383        H385   1.087       .  S
C387        C388   1.346       .  D
C387        H389   1.086       .  S
C388        H390   1.086       .  S
C391        C392   1.336       .  D
C391        H393   1.086       .  S
C392        H394   1.088       .  S
C395        C396   1.343       .  D
C395        H397   1.084       .  S
C396        H398   1.087       .  S
C399        C400   1.340       .  D
C399        H401   1.087       .  S
C400        H402   1.087       .  S
C403        C404   1.207       .  T
C404        C405   1.414       .  S
C405        C406   1.207   1_556  T
C407        C408   1.340       .  D
C407        H409   1.087       .  S
C408        H410   1.086       .  S
C411        C412   1.344       .  D
C411        H413   1.086       .  S
C412        H414   1.086       .  S
C415        C416   1.208   1_545  T
C416        C417   1.416       .  S
C417        C418   1.208       .  T
C419        C420   1.337       .  D
C419        H421   1.087       .  S
C420        H422   1.086       .  S
C423        H425   1.086       .  S
C424        H426   1.086       .  S
C427        C428   1.207       .  T
C428        C429   1.413   1_655  S
C429        C430   1.207       .  T
C431        C432   1.338       .  D
C431        H433   1.088       .  S
C432        H434   1.086       .  S
C435        C436   1.346       .  D
C435        H437   1.085       .  S
C436        H438   1.086       .  S
