geometry optimzed in LAMMPS
_audit_creation_date              2020-11-30 
_audit_creation_method            'lammps2cif' 
_symmetry_space_group_name_H-M    'P1' 
_symmetry_Int_Tables_number       1 
_symmetry_cell_setting            triclinic 
loop_ 
_symmetry_equiv_pos_as_xyz 
  x,y,z 
_cell_length_a                    32.18904939898473 
_cell_length_b                    32.493382066955256 
_cell_length_c                    28.388489021651697 
_cell_angle_alpha                 91.40577732091405 
_cell_angle_beta                  89.14702100825983 
_cell_angle_gamma                 88.03651075582871 
loop_ 
_atom_site_label 
_atom_site_type_symbol 
_atom_site_fract_x 
_atom_site_fract_y 
_atom_site_fract_z 
_atom_site_charge 
O1          O  0.09623938  0.01184414  0.22171897    -0.82450
O2          O  0.14324514  0.12695263  0.03964517    -0.82470
O3          O  0.12113005  0.14079710  0.14440582    -0.82480
O4          O  0.06287537  0.07686612  0.07674617    -0.82420
O5          O  0.18015963  0.14783502  0.10821707    -0.82540
O6          O  0.06032760  0.04703927  0.14562638    -0.82460
O7          O  0.11513794  0.07744739  0.00209157    -0.82450
O8          O  0.09302978  0.08042900  0.21494583    -0.82480
C9          C  0.08240519  0.04685081  0.23664596     1.07240
C10         C  0.12546521  0.11491654  0.00459580     1.07130
C11         C  0.14615819  0.16369063  0.12395936     1.07270
C12         C  0.04442925  0.07036562  0.11430598     1.07140
O13         O  0.11477142  0.47161667  0.13883647    -0.82450
O14         O  0.22375384  0.06424963  0.10462013    -0.82520
O15         O  0.17659819  0.05932782  0.22304293    -0.82460
O16         O  0.15057027  0.00055790  0.03820543    -0.82440
O17         O  0.19154972  0.05063086  0.01941767    -0.82490
O18         O  0.17595955  0.00237507  0.18512870    -0.82460
O19         O  0.07423392  0.48699307  0.08134030    -0.82420
O20         O  0.21048731  0.10722864  0.16381074    -0.82490
Co21       Co  0.12035087  0.02740315  0.16369650     1.51530
Co22       Co  0.18277594  0.09324884  0.07168119     1.51690
Co23       Co  0.14837361  0.09469497  0.17819218     1.51570
Co24       Co  0.10543352  0.03832205  0.05753817     1.51470
O25         O  0.14295801  0.05918213  0.11240420    -1.44380
C26         C  0.08737877  0.46075993  0.11092369     1.07170
C27         C  0.23639997  0.08793758  0.13543532     1.07260
C28         C  0.18881352  0.02260685  0.21997286     1.07200
C29         C  0.17886956  0.01447937  0.01297999     1.07170
O30         O  0.16681563  0.23251325  0.11950814    -0.82450
O31         O  0.13869452  0.34276957  0.03062964    -0.82470
O32         O  0.09746992  0.26628414  0.04235864    -0.82480
O33         O  0.20398249  0.37064979  0.12044994    -0.82420
O34         O  0.06233458  0.31672965  0.00846751    -0.82540
O35         O  0.20968976  0.30424789  0.13988123    -0.82460
O36         O  0.14437714  0.40117027  0.06855286    -0.82450
O37         O  0.10029006  0.22273250  0.12326668    -0.82480
C38         C  0.13732210  0.20810537  0.12020748     1.07240
C39         C  0.14172534  0.38103168  0.02976432     1.07130
C40         C  0.07755692  0.27965263  0.00682488     1.07270
C41         C  0.22468066  0.33832408  0.12542697     1.07140
O42         O  0.13717101  0.31894957  0.20567576    -0.82450
O43         O  0.03500031  0.32551375  0.09936533    -0.82520
O44         O  0.05868776  0.29216996  0.17381057    -0.82460
O45         O  0.08927985  0.39702415  0.14951036    -0.82440
O46         O  0.07015952  0.39404417  0.07566231    -0.82490
O47         O  0.10796576  0.25325724  0.20167000    -0.82460
O48         O  0.16893910  0.37181206  0.20635589    -0.82420
O49         O  0.02886898  0.25817362  0.09391501    -0.82490
Co50       Co  0.15572480  0.27875485  0.16390193     1.51530
Co51       Co  0.08932369  0.33150447  0.06725357     1.51690
Co52       Co  0.08045831  0.28109700  0.10924722     1.51570
Co53       Co  0.14798457  0.38083235  0.13688721     1.51470
O54         O  0.12714496  0.31958644  0.12178612    -1.44380
C55         C  0.16482842  0.33659317  0.22331421     1.07170
C56         C  0.01300787  0.29426680  0.09290774     1.07260
C57         C  0.07231390  0.27133343  0.20693870     1.07200
C58         C  0.07580574  0.41589016  0.11357175     1.07170
O59         O  0.47518840  0.05551892  0.10380582    -0.82450
O60         O  0.35476099  0.05739749  0.22464650    -0.82470
O61         O  0.45119158  0.08224711  0.19363481    -0.82480
O62         O  0.37734166  0.49468533  0.16059298    -0.82420
O63         O  0.40499742  0.12084820  0.23234125    -0.82540
O64         O  0.42414118  0.49066425  0.10581375    -0.82460
O65         O  0.30521213  0.03024074  0.18594673    -0.82450
O66         O  0.48987059  0.12049085  0.12354049    -0.82480
C67         C  0.50124004  0.08318303  0.11515489     1.07240
C68         C  0.31859565  0.04562385  0.22427081     1.07130
C69         C  0.43749540  0.09853477  0.23174920     1.07270
C70         C  0.40374957  0.47424266  0.13708183     1.07140
O71         O  0.36197930  0.03154157  0.04913801    -0.82450
O72         O  0.35448290  0.16236996  0.16726306    -0.82520
O73         O  0.41603892  0.14008400  0.07889469    -0.82460
O74         O  0.30258239  0.07377349  0.10302523    -0.82440
O75         O  0.29679822  0.10775835  0.17164200    -0.82490
O76         O  0.41689525  0.08674690  0.03301571    -0.82460
O77         O  0.32384081  0.98746593  0.08405295    -0.82420
O78         O  0.42252570  0.16418404  0.16298778    -0.82490
Co79       Co  0.41596626  0.04564044  0.08080492     1.51530
Co80       Co  0.35472761  0.11015440  0.19550172     1.51690
Co81       Co  0.43379815  0.10806377  0.13401612     1.51570
Co82       Co  0.34269511  0.03373347  0.12770091     1.51470
O83         O  0.38137770  0.08040087  0.13717700    -1.44380
C84         C  0.34356165  0.99729396  0.04649261     1.07170
C85         C  0.38678015  0.18155271  0.16052011     1.07260
C86         C  0.41111235  0.12426949  0.03905905     1.07200
C87         C  0.28081342  0.09299785  0.13492265     1.07170
O88         O  0.44645539  0.27353151  0.08702002    -0.82450
O89         O  0.34154324  0.32193901  0.21219173    -0.82470
O90         O  0.43654010  0.33041426  0.16943275    -0.82480
O91         O  0.35617787  0.24530957  0.16883315    -0.82420
O92         O  0.39756443  0.37108922  0.21067971    -0.82540
O93         O  0.38672476  0.22830661  0.10033600    -0.82460
O94         O  0.28519719  0.29828315  0.19183592    -0.82450
O95         O  0.45803292  0.33831011  0.08159544    -0.82480
C96         C  0.47079894  0.30197305  0.08593839     1.07240
C97         C  0.30476660  0.31856852  0.22174705     1.07130
C98         C  0.42806799  0.34659725  0.20833035     1.07270
C99         C  0.38000447  0.22204004  0.14397897     1.07140
O100        O  0.33637686  0.27863086  0.03350134    -0.82450
O101        O  0.36550593  0.41498244  0.13450162    -0.82520
O102        O  0.38840672  0.38113860  0.05737515    -0.82460
O103        O  0.28479011  0.31174048  0.09464315    -0.82440
O104        O  0.29010965  0.36592852  0.14185416    -0.82490
O105        O  0.40553478  0.32500244  0.01585962    -0.82460
O106        O  0.31204251  0.23437800  0.08093213    -0.82420
O107        O  0.43461651  0.40803690  0.13048647    -0.82490
Co108      Co  0.39162708  0.27934379  0.06200470     1.51530
Co109      Co  0.34965375  0.36413106  0.16787480     1.51690
Co110      Co  0.40883300  0.35746189  0.11683020     1.51570
Co111      Co  0.31879280  0.27844151  0.13277411     1.51470
O112        O  0.36816234  0.31564673  0.11698505    -1.44380
C113        C  0.31724385  0.24588392  0.03903426     1.07170
C114        C  0.40188547  0.43058702  0.13628931     1.07260
C115        C  0.40141591  0.36422496  0.01902412     1.07200
C116        C  0.26862767  0.34132708  0.11665806     1.07170
O117        O  0.13758172  0.17986980  0.96795527    -0.82450
O118        O  0.12280217  0.16814531  0.76599228    -0.82470
O119        O  0.07531039  0.12317336  0.90129433    -0.82480
O120        O  0.20249040  0.20389349  0.83264954    -0.82420
O121        O  0.07555626  0.12105958  0.82385852    -0.82540
O122        O  0.20090552  0.19545638  0.90941761    -0.82460
O123        O  0.17832410  0.19707467  0.79670387    -0.82450
O124        O  0.08977842  0.13942543  0.93887806    -0.82480
C125        C  0.11792373  0.14597299  0.96835963     1.07240
C126        C  0.16207960  0.17618338  0.76438883     1.07130
C127        C  0.07897679  0.10276465  0.86237225     1.07270
C128        C  0.21982369  0.19003499  0.87045681     1.07140
O129        O  0.16683233  0.27916030  0.88698171    -0.82450
O130        O  0.01641714  0.19533608  0.85235310    -0.82520
O131        O  0.06726586  0.21582400  0.96526872    -0.82460
O132        O  0.11557415  0.24284076  0.76633060    -0.82440
O133        O  0.06435746  0.24022394  0.80914703    -0.82490
O134        O  0.09839961  0.26239918  0.93032410    -0.82460
O135        O  0.17391642  0.28062154  0.80928392    -0.82420
O136        O  0.01282947  0.17519327  0.92588869    -0.82490
Co137      Co  0.14800272  0.22604587  0.92003718     1.51530
Co138      Co  0.07320193  0.18130215  0.81594938     1.51690
Co139      Co  0.06558447  0.18494989  0.90218893     1.51570
Co140      Co  0.14440376  0.23681102  0.83194052     1.51470
O141        O  0.11745644  0.19329907  0.86712259    -1.44380
C142        C  0.17529886  0.29837296  0.84890695     1.07170
C143        C  0.99625503  0.19294496  0.89194008     1.07260
C144        C  0.07750487  0.25283304  0.96469675     1.07200
C145        C  0.07645681  0.24257973  0.76846272     1.07490
O146        O  0.16961072  0.50469330  0.93354456    -0.82450
O147        O  0.18893075  0.47543318  0.80576684    -0.82470
O148        O  0.22674346  0.45118327  0.88408917    -0.82480
O149        O  0.10207314  0.04370042  0.82221920    -0.82420
O150        O  0.23128107  0.40800342  0.82712171    -0.82540
O151        O  0.09673167  0.03826566  0.89910053    -0.82460
O152        O  0.13793884  0.49568221  0.77042733    -0.82450
O153        O  0.19619937  0.45463611  0.97034192    -0.82480
C154        C  0.18757293  0.49227028  0.96921931     1.07240
C155        C  0.17563056  0.48637542  0.76794768     1.07130
C156        C  0.24888761  0.43030152  0.85659468     1.07270
C157        C  0.09237773  0.05949410  0.86138517     1.07140
O158        O  0.05750196  0.46221214  0.92088619    -0.82450
O159        O  0.15783018  0.36259747  0.82024113    -0.82520
O160        O  0.15049137  0.38322659  0.94886782    -0.82460
O161        O  0.07539610  0.46531623  0.80689307    -0.82440
O162        O  0.11900839  0.42036694  0.77201972    -0.82490
O163        O  0.12226979  0.43907098  0.98153278    -0.82460
O164        O  0.05809918  0.48091543  0.84647672    -0.82420
O165        O  0.19923223  0.36117234  0.88094251    -0.82490
Co166      Co  0.11458529  0.48084475  0.92730286     1.51530
Co167      Co  0.17141165  0.41901250  0.81097350     1.51690
Co168      Co  0.18847984  0.41617938  0.91519381     1.51570
Co169      Co  0.12114662  0.49217102  0.84077170     1.51470
O170        O  0.14054540  0.43980965  0.87300970    -1.44380
C171        C  0.03784608  0.47129459  0.88412598     1.07170
C172        C  0.17796487  0.34278595  0.85021741     1.07260
C173        C  0.13616866  0.40175965  0.98454547     1.07200
C174        C  0.08326219  0.43800134  0.77504982     1.07170
O175        O  0.38644211  0.18491759  0.00391669    -0.82450
O176        O  0.38614715  0.14120365  0.78124668    -0.82470
O177        O  0.33993872  0.09457605  0.89470654    -0.82480
O178        O  0.43679411  0.23714567  0.87363050    -0.82420
O179        O  0.39882165  0.11491164  0.86857408    -0.82540
O180        O  0.43693481  0.20449263  0.93834869    -0.82460
O181        O  0.43104657  0.17865049  0.81505464    -0.82450
O182        O  0.38202550  0.12763061  0.96519730    -0.82480
C183        C  0.39424185  0.14710146  0.00040217     1.07240
C184        C  0.42324290  0.15427551  0.78225035     1.07130
C185        C  0.37785953  0.08636978  0.88336666     1.07270
C186        C  0.45482501  0.21224614  0.90075051     1.07140
O187        O  0.38125918  0.27491092  0.91957442    -0.82450
O188        O  0.28757105  0.16309263  0.83694193    -0.82520
O189        O  0.31152397  0.18177235  0.99531099    -0.82460
O190        O  0.35195581  0.21561002  0.77778685    -0.82440
O191        O  0.30773368  0.17145947  0.80318800    -0.82490
O192        O  0.32102854  0.23690229  0.95923800    -0.82460
O193        O  0.34676420  0.26366078  0.85633934    -0.82420
O194        O  0.27332988  0.15877461  0.91319511    -0.82490
Co195      Co  0.37957397  0.22191018  0.94920268     1.51530
Co196      Co  0.35008832  0.14192298  0.84279898     1.51690
Co197      Co  0.32883887  0.14453599  0.93725848     1.51570
Co198      Co  0.38799473  0.22047530  0.83633825     1.51470
O199        O  0.35994337  0.18650133  0.89119035    -1.44380
C200        C  0.35397664  0.28626372  0.89136349     1.07170
C201        C  0.26187169  0.16864408  0.87259925     1.07260
C202        C  0.31038034  0.22072831  0.99607552     1.07200
C203        C  0.31865645  0.19688948  0.77199924     1.07170
O204        O  0.41957294  0.42866685  0.98695738    -0.82450
O205        O  0.40450566  0.38418347  0.79251717    -0.82470
O206        O  0.33369578  0.35389926  0.92180675    -0.82480
O207        O  0.47152789  0.49236995  0.85486226    -0.82420
O208        O  0.36367368  0.34157362  0.85055665    -0.82540
O209        O  0.47358008  0.45628862  0.91889045    -0.82460
O210        O  0.45269003  0.42722200  0.80391125    -0.82450
O211        O  0.40644842  0.38056214  0.93756875    -0.82480
C212        C  0.41318440  0.39098398  0.97911625     1.07240
C213        C  0.43833233  0.39871282  0.77966694     1.07130
C214        C  0.34636319  0.32903403  0.88734033     1.07270
C215        C  0.49204544  0.47210996  0.88492754     1.07140
O216        O  0.41983559  0.03135310  0.91038453    -0.82450
O217        O  0.31735620  0.40459686  0.84103425    -0.82520
O218        O  0.34220453  0.43643688  0.98843686    -0.82460
O219        O  0.37079937  0.46885762  0.77817230    -0.82440
O220        O  0.34136702  0.41250493  0.80213311    -0.82490
O221        O  0.36370327  0.49599802  0.96687891    -0.82460
O222        O  0.38780257  0.02597501  0.84216104    -0.82420
O223        O  0.30430811  0.43861581  0.90579859    -0.82490
Co224      Co  0.41826531  0.47635024  0.94133220     1.51530
Co225      Co  0.37884213  0.39566784  0.85670651     1.51690
Co226      Co  0.35610211  0.41117374  0.91954716     1.51570
Co227      Co  0.41830722  0.47647098  0.82368598     1.51470
O228        O  0.38983000  0.45230220  0.88272953    -1.44380
C229        C  0.39479670  0.04523970  0.87974007     1.07170
C230        C  0.29157734  0.42479040  0.86790447     1.07260
C231        C  0.34706201  0.47503797  0.99842590     1.07200
C232        C  0.34270248  0.44271562  0.77394555     1.07170
O233        O  0.01026261  0.22221036  0.73536815    -0.82450
O234        O  0.01908170  0.18344813  0.52062365    -0.82470
O235        O  0.09025897  0.13110141  0.65310613    -0.82480
O236        O  0.48998444  0.25393967  0.59832619    -0.82420
O237        O  0.08235000  0.16110257  0.58491675    -0.82540
O238        O  0.48076186  0.26447762  0.67333485    -0.82460
O239        O  0.99007027  0.23529297  0.56022452    -0.82450
O240        O  0.06722166  0.19845119  0.70246718    -0.82480
C241        C  0.05003073  0.22292993  0.73146799     1.07240
C242        C  0.00493316  0.22119150  0.52149907     1.07130
C243        C  0.10579406  0.14741870  0.61670325     1.07270
C244        C  0.49691908  0.27524604  0.63575955     1.07140
O245        O  0.40575599  0.21253609  0.65693542    -0.82450
O246        O  0.03702853  0.08695422  0.61171295    -0.82520
O247        O  0.49410793  0.15306508  0.74784101    -0.82460
O248        O  0.44692249  0.16328086  0.53905441    -0.82440
O249        O  0.47415455  0.11102450  0.56935224    -0.82490
O250        O  0.44314851  0.15493821  0.70262460    -0.82460
O251        O  0.40862694  0.22835662  0.58240340    -0.82420
O252        O  0.00952476  0.09644946  0.68166368    -0.82490
Co253      Co  0.46432659  0.20883463  0.68592856     1.51530
Co254      Co  0.02661362  0.13954057  0.57624816     1.51690
Co255      Co  0.03754937  0.14719946  0.69137558     1.51570
Co256      Co  0.45738722  0.19994137  0.60126411     1.51470
O257        O  0.50489020  0.17532915  0.63542767    -1.44380
C258        C  0.38743173  0.22254315  0.61901440     1.07170
C259        C  0.01432241  0.07470697  0.64537261     1.07260
C260        C  0.45501303  0.14933291  0.74290959     1.07200
C261        C  0.45370644  0.12415006  0.53667359     1.07170
O262        O  0.49267690  0.37705708  0.72570214    -0.82450
O263        O  0.47305039  0.43058481  0.51802595    -0.82470
O264        O  0.41956374  0.48222843  0.66206656    -0.82480
O265        O  0.02360631  0.33626091  0.60188548    -0.82420
O266        O  0.41976118  0.44759256  0.59581504    -0.82540
O267        O  0.03309971  0.32546677  0.67695595    -0.82460
O268        O  0.47918460  0.38108430  0.56166164    -0.82450
O269        O  0.44185730  0.41219585  0.70035106    -0.82480
C270        C  0.45622418  0.39113465  0.73238620     1.07240
C271        C  0.47295870  0.39189496  0.52148951     1.07130
C272        C  0.39993362  0.46247273  0.63113061     1.07270
C273        C  0.02119000  0.31285264  0.63745097     1.07140
O274        O  0.08333281  0.38870077  0.67158744    -0.82450
O275        O  0.46950211  0.02263329  0.61681188    -0.82520
O276        O  0.01867598  0.45142128  0.73815662    -0.82460
O277        O  0.04678549  0.44045618  0.52665784    -0.82440
O278        O  0.02734654  0.49431849  0.56582170    -0.82490
O279        O  0.06091962  0.40280450  0.70692730    -0.82460
O280        O  0.09481061  0.40151359  0.59726332    -0.82420
O281        O  0.50393676  0.01197791  0.68083358    -0.82490
Co282      Co  0.02042500  0.38024996  0.66106842     1.51530
Co283      Co  0.47433905  0.46962599  0.57894793     1.51690
Co284      Co  0.47385488  0.46181506  0.69025485     1.51570
Co285      Co  0.03550584  0.39486531  0.57798492     1.51470
O286        O  0.00647779  0.43511751  0.63101249    -1.44380
C287        C  0.10904530  0.39698604  0.63829886     1.07170
C288        C  0.49630672  0.03400063  0.64630688     1.07260
C289        C  0.05241736  0.43024576  0.73877903     1.07200
C290        C  0.04182986  0.47998353  0.52881365     1.07170
O291        O  0.21538788  0.13925044  0.72037075    -0.82450
O292        O  0.22177516  0.24908228  0.54485103    -0.82470
O293        O  0.22968320  0.27395961  0.64700953    -0.82480
O294        O  0.16448217  0.16080031  0.57016581    -0.82420
O295        O  0.27981604  0.27961812  0.59600272    -0.82540
O296        O  0.17772172  0.13769781  0.63987866    -0.82460
O297        O  0.21024952  0.19417849  0.50410963    -0.82450
O298        O  0.19633689  0.20212778  0.69590081    -0.82480
C299        C  0.19062202  0.17082499  0.72364761     1.07240
C300        C  0.20657946  0.23330687  0.50985983     1.07130
C301        C  0.24916134  0.29588546  0.61810674     1.07270
C302        C  0.15156014  0.14925077  0.60916444     1.07140
O303        O  0.26876295  0.10864381  0.64370835    -0.82450
O304        O  0.33046774  0.20862086  0.57507478    -0.82520
O305        O  0.26879585  0.23544633  0.72724531    -0.82460
O306        O  0.28170443  0.13717189  0.54351412    -0.82440
O307        O  0.28489142  0.18800327  0.49998730    -0.82490
O308        O  0.28841953  0.17335009  0.69974703    -0.82460
O309        O  0.22807928  0.09482661  0.58578023    -0.82420
O310        O  0.31620863  0.23100605  0.64777470    -0.82490
Co311      Co  0.23520598  0.15858178  0.66180284     1.51530
Co312      Co  0.27714546  0.22811206  0.55728994     1.51690
Co313      Co  0.25405068  0.21784254  0.66468578     1.51570
Co314      Co  0.22236842  0.14936754  0.55379364     1.51470
O315        O  0.24610108  0.18957877  0.60203439    -1.44380
C316        C  0.25779565  0.08393138  0.61199076     1.07170
C317        C  0.34237776  0.22021917  0.61467137     1.07260
C318        C  0.29119828  0.20271724  0.73134328     1.07200
C319        C  0.29016345  0.14951145  0.50467404     1.07170
O320        O  0.21529490  0.43401955  0.73148722    -0.82450
O321        O  0.25613795  0.47575821  0.51904908    -0.82470
O322        O  0.25857330  0.02792244  0.65602570    -0.82480
O323        O  0.16556469  0.43897731  0.62753231    -0.82420
O324        O  0.29128639  0.01706013  0.58704420    -0.82540
O325        O  0.18108842  0.38483970  0.66671084    -0.82460
O326        O  0.19481130  0.48148632  0.55235612    -0.82450
O327        O  0.20835203  0.48773407  0.69224770    -0.82480
C328        C  0.19780364  0.46837511  0.72705156     1.07240
C329        C  0.22181216  0.49585825  0.52439041     1.07130
C330        C  0.27009996  0.04041580  0.61726210     1.07270
C331        C  0.15322920  0.40796955  0.64758127     1.07140
O332        O  0.26882764  0.36192073  0.63720559    -0.82450
O333        O  0.33833913  0.43254932  0.60733816    -0.82520
O334        O  0.28834950  0.48277112  0.73669541    -0.82460
O335        O  0.23430951  0.40142914  0.51807418    -0.82440
O336        O  0.29710738  0.39425730  0.54323785    -0.82490
O337        O  0.29950971  0.41705830  0.71078162    -0.82460
O338        O  0.21187782  0.35966341  0.59480547    -0.82420
O339        O  0.32999921  0.48069940  0.65884423    -0.82490
Co340      Co  0.24284102  0.40189878  0.67990859     1.51530
Co341      Co  0.29362982  0.45359218  0.56866107     1.51690
Co342      Co  0.26762323  0.47414576  0.67433442     1.51570
Co343      Co  0.20322730  0.42241699  0.57643340     1.51470
O344        O  0.24968592  0.44134477  0.61944387    -1.44380
C345        C  0.24269099  0.34121186  0.61569588     1.07170
C346        C  0.35425388  0.45793356  0.63384759     1.07260
C347        C  0.30818493  0.44777237  0.73961231     1.07200
C348        C  0.26864610  0.38094958  0.51742723     1.07170
O349        O  0.49070508  0.10326506  0.28765221    -0.82450
O350        O  0.45496800  0.05634334  0.49480627    -0.82470
O351        O  0.41563899  0.00027353  0.34633997    -0.82480
O352        O  0.00668952  0.14793958  0.40834723    -0.82420
O353        O  0.40855403  0.03714487  0.41167234    -0.82540
O354        O  0.02922218  0.15123486  0.33556295    -0.82460
O355        O  0.45938476  0.10840152  0.45445827    -0.82450
O356        O  0.43906561  0.06574722  0.30301579    -0.82480
C357        C  0.45642569  0.08956650  0.27619809     1.07240
C358        C  0.45092776  0.09541570  0.49343258     1.07130
C359        C  0.39235940  0.01885777  0.37685094     1.07270
C360        C  0.01270014  0.16838545  0.37114084     1.07140
O361        O  0.07336126  0.08634127  0.34818369    -0.82450
O362        O  0.45929852  0.46158606  0.40077718    -0.82520
O363        O  0.02072943  0.02599022  0.27723537    -0.82460
O364        O  0.03134596  0.04596597  0.48873488    -0.82440
O365        O  0.01377080  0.98910073  0.45519040    -0.82490
O366        O  0.05740714  0.07457343  0.31000853    -0.82460
O367        O  0.07782334  0.08449444  0.42478891    -0.82420
O368        O  0.50251773  0.46916696  0.34175763    -0.82490
Co369      Co  0.01245229  0.09961278  0.35321750     1.51530
Co370      Co  0.46173554  0.01572548  0.43554189     1.51690
Co371      Co  0.47238302  0.01846060  0.32346362     1.51570
Co372      Co  0.01739667  0.09124125  0.43842117     1.51470
O373        O  0.49595523  0.04808373  0.38472853    -1.44380
C374        C  0.09529387  0.08428403  0.38493158     1.07170
C375        C  0.48615092  0.44684099  0.37162048     1.07260
C376        C  0.05206667  0.04865098  0.27641931     1.07200
C377        C  0.03269520  0.00624125  0.48710483     1.07170
O378        O  0.00995621  0.26735702  0.25188490    -0.82450
O379        O  0.02320858  0.26263389  0.45020947    -0.82470
O380        O  0.07325855  0.36152599  0.34739004    -0.82480
O381        O  0.47225035  0.22800091  0.39631176    -0.82420
O382        O  0.07464695  0.31872989  0.40568006    -0.82540
O383        O  0.49854178  0.22275031  0.32515764    -0.82460
O384        O  0.95963525  0.26611051  0.47812587    -0.82450
O385        O  0.06297895  0.29565378  0.28521419    -0.82480
C386        C  0.04859533  0.27460773  0.25186380     1.07240
C387        C  0.99633719  0.25010846  0.48105581     1.07130
C388        C  0.09274700  0.34321550  0.37916141     1.07270
C389        C  0.49516785  0.20936746  0.36544698     1.07140
O390        O  0.41159319  0.25253610  0.33810378    -0.82450
O391        O  0.00967418  0.38269302  0.40041507    -0.82520
O392        O  0.48923782  0.34015205  0.25139726    -0.82460
O393        O  0.45823221  0.34766203  0.45101139    -0.82440
O394        O  0.52032566  0.34426431  0.48124296    -0.82490
O395        O  0.43274728  0.31348461  0.27937815    -0.82460
O396        O  0.40726627  0.29278995  0.40130483    -0.82420
O397        O  0.99138822  0.38832376  0.32648656    -0.82490
Co398      Co  0.46526521  0.26708408  0.30372495     1.51530
Co399      Co  0.01443522  0.32143341  0.41824427     1.51690
Co400      Co  0.02644005  0.34263581  0.30751319     1.51570
Co401      Co  0.46758972  0.28900572  0.41641615     1.51470
O402        O  0.49316982  0.30540308  0.35246999    -1.44380
C403        C  0.38958073  0.27202861  0.36945537     1.07170
C404        C  0.99457916  0.40329951  0.36688129     1.07260
C405        C  0.45063290  0.33477079  0.24953965     1.07200
C406        C  0.48372628  0.36050704  0.48295810     1.07170
O407        O  0.19329960  0.02548997  0.30090029    -0.82450
O408        O  0.21910501  0.01585327  0.44760188    -0.82470
O409        O  0.22485945  0.48250933  0.36081059    -0.82480
O410        O  0.16092199  0.07367020  0.41594964    -0.82420
O411        O  0.27693858  0.47274403  0.40471503    -0.82540
O412        O  0.15777209  0.09605060  0.34389442    -0.82460
O413        O  0.21475490  0.06704758  0.49086417    -0.82450
O414        O  0.24642140  0.99365822  0.26753617    -0.82480
C415        C  0.20853238  0.00727105  0.26397277     1.07240
C416        C  0.21271997  0.02804014  0.48779086     1.07130
C417        C  0.24527948  0.45915532  0.38559023     1.07270
C418        C  0.14028317  0.08308223  0.38072492     1.07140
O419        O  0.23519302  0.13782387  0.31929570    -0.82450
O420        O  0.32942154  0.04266080  0.40604627    -0.82520
O421        O  0.30294257  0.05491158  0.30350611    -0.82460
O422        O  0.26176700  0.13242164  0.43505890    -0.82440
O423        O  0.28597258  0.08096587  0.47318620    -0.82490
O424        O  0.25508238  0.07328185  0.25872387    -0.82460
O425        O  0.20052956  0.14995110  0.38474895    -0.82420
O426        O  0.32329357  0.99945065  0.34589473    -0.82490
Co427      Co  0.21343196  0.08217960  0.31316603     1.51530
Co428      Co  0.27522269  0.03121766  0.42877542     1.51690
Co429      Co  0.26219859  0.02029635  0.33100039     1.51570
Co430      Co  0.21193098  0.10194412  0.42728939     1.51470
O431        O  0.24677198  0.06527295  0.37673484    -1.44380
C432        C  0.22519119  0.16198782  0.35288478     1.07170
C433        C  0.34635371  0.01969917  0.37493684     1.07260
C434        C  0.29174774  0.06050075  0.26321473     1.07200
C435        C  0.28351567  0.11971921  0.46682965     1.07170
O436        O  0.17467386  0.32226685  0.30183422    -0.82450
O437        O  0.21187860  0.24958044  0.43244683    -0.82470
O438        O  0.23095622  0.22804490  0.32082947    -0.82480
O439        O  0.15577203  0.32833333  0.41435991    -0.82420
O440        O  0.26805543  0.21588718  0.38265474    -0.82540
O441        O  0.15819990  0.37346764  0.36009360    -0.82460
O442        O  0.20254379  0.30030978  0.47900991    -0.82450
O443        O  0.22113806  0.29312704  0.25804736    -0.82480
C444        C  0.18730841  0.31495822  0.26194694     1.07240
C445        C  0.20076897  0.26186974  0.47159508     1.07130
C446        C  0.24109289  0.20430108  0.35310283     1.07270
C447        C  0.13726794  0.34925273  0.38493611     1.07140
O448        O  0.25299103  0.39489053  0.35402832    -0.82450
O449        O  0.32361795  0.28737041  0.40517059    -0.82520
O450        O  0.29995063  0.32210582  0.30255432    -0.82460
O451        O  0.26808571  0.36006535  0.43972396    -0.82440
O452        O  0.27410814  0.30962829  0.48187568    -0.82490
O453        O  0.25356869  0.35712316  0.26881287    -0.82460
O454        O  0.20763872  0.40286106  0.40985403    -0.82420
O455        O  0.32079422  0.25333676  0.33864521    -0.82490
Co456      Co  0.21426387  0.35754971  0.32757351     1.51530
Co457      Co  0.26724962  0.27015572  0.42049236     1.51690
Co458      Co  0.26492019  0.27621486  0.31095513     1.51570
Co459      Co  0.21148434  0.34343432  0.42830246     1.51470
O460        O  0.23776676  0.30925916  0.37029725    -1.44380
C461        C  0.23599363  0.41718135  0.38483529     1.07170
C462        C  0.34257307  0.27064097  0.37056872     1.07260
C463        C  0.28776076  0.33723043  0.26601975     1.07200
C464        C  0.27601512  0.34853510  0.47890789     1.07170
O465        O  0.09623899  0.51184314  0.22171911    -0.82450
O466        O  0.14326719  0.62695227  0.03963696    -0.82470
O467        O  0.12113019  0.64079610  0.14440484    -0.82480
O468        O  0.06287559  0.57686854  0.07674865    -0.82420
O469        O  0.18016227  0.64783147  0.10821922    -0.82540
O470        O  0.06032707  0.54703661  0.14562583    -0.82460
O471        O  0.11513906  0.57745084  0.00209552    -0.82450
O472        O  0.09302598  0.58042796  0.21494486    -0.82480
C473        C  0.08240301  0.54684951  0.23664557     1.07240
C474        C  0.12547433  0.61491780  0.00459542     1.07130
C475        C  0.14615982  0.66368814  0.12395823     1.07270
C476        C  0.04442881  0.57036489  0.11430718     1.07140
O477        O  0.11477033  0.97161750  0.13883807    -0.82450
O478        O  0.22375095  0.56423894  0.10463704    -0.82520
O479        O  0.17659250  0.55932682  0.22304687    -0.82460
O480        O  0.15056701  0.50055785  0.03820416    -0.82440
O481        O  0.19155835  0.55062408  0.01942464    -0.82490
O482        O  0.17596042  0.50237561  0.18512895    -0.82460
O483        O  0.07423540  0.98699140  0.08133869    -0.82420
O484        O  0.21048503  0.60722779  0.16381731    -0.82490
Co485      Co  0.12035091  0.52740208  0.16369636     1.51530
Co486      Co  0.18278370  0.59324314  0.07168592     1.51690
Co487      Co  0.14837078  0.59469429  0.17819422     1.51570
Co488      Co  0.10543222  0.53832362  0.05753866     1.51470
O489        O  0.14295668  0.55918265  0.11240465    -1.44380
C490        C  0.08737939  0.96075947  0.11092383     1.07170
C491        C  0.23639779  0.58793310  0.13544545     1.07260
C492        C  0.18881104  0.52260684  0.21997534     1.07200
C493        C  0.17887072  0.51447605  0.01298247     1.07170
O494        O  0.16681926  0.73251087  0.11950732    -0.82450
O495        O  0.13869712  0.84277037  0.03062843    -0.82470
O496        O  0.09747321  0.76628392  0.04235803    -0.82480
O497        O  0.20398593  0.87064905  0.12044887    -0.82420
O498        O  0.06233736  0.81672948  0.00846744    -0.82540
O499        O  0.20969374  0.80424684  0.13987944    -0.82460
O500        O  0.14437973  0.90117068  0.06855242    -0.82450
O501        O  0.10029340  0.72273149  0.12326562    -0.82480
C502        C  0.13732514  0.70810347  0.12020622     1.07240
C503        C  0.14172742  0.88103261  0.02976358     1.07130
C504        C  0.07755985  0.77965254  0.00682460     1.07270
C505        C  0.22468441  0.83832342  0.12542573     1.07140
O506        O  0.13717515  0.81894864  0.20567377    -0.82450
O507        O  0.03500400  0.82551316  0.09936557    -0.82520
O508        O  0.05869179  0.79216917  0.17381021    -0.82460
O509        O  0.08928320  0.89702341  0.14951011    -0.82440
O510        O  0.07016205  0.89404342  0.07566228    -0.82490
O511        O  0.10796978  0.75325628  0.20166933    -0.82460
O512        O  0.16894282  0.87181121  0.20635508    -0.82420
O513        O  0.02887242  0.75817318  0.09391470    -0.82490
Co514      Co  0.15572878  0.77875353  0.16390052     1.51530
Co515      Co  0.08932694  0.83150420  0.06725307     1.51690
Co516      Co  0.08046199  0.78109630  0.10924669     1.51570
Co517      Co  0.14798798  0.88083171  0.13688646     1.51470
O518        O  0.12714878  0.81958559  0.12178503    -1.44380
C519        C  0.16483229  0.83659214  0.22331290     1.07170
C520        C  0.01301146  0.79426642  0.09290737     1.07260
C521        C  0.07231799  0.77133268  0.20693833     1.07200
C522        C  0.07580820  0.91588928  0.11357174     1.07170
O523        O  0.47518769  0.55551682  0.10380839    -0.82450
O524        O  0.35475972  0.55739882  0.22464796    -0.82470
O525        O  0.45119045  0.58224600  0.19363541    -0.82480
O526        O  0.37734327  0.99468491  0.16059209    -0.82420
O527        O  0.40499745  0.62084869  0.23234146    -0.82540
O528        O  0.42414411  0.99066515  0.10581422    -0.82460
O529        O  0.30521101  0.53024062  0.18594893    -0.82450
O530        O  0.48986963  0.62048933  0.12354051    -0.82480
C531        C  0.50123927  0.58318145  0.11515614     1.07240
C532        C  0.31859454  0.54562451  0.22427258     1.07130
C533        C  0.43749484  0.59853443  0.23174966     1.07270
C534        C  0.40375226  0.97424296  0.13708170     1.07140
O535        O  0.36197830  0.53154302  0.04913829    -0.82450
O536        O  0.35448350  0.66237083  0.16726290    -0.82520
O537        O  0.41603825  0.64008304  0.07889529    -0.82460
O538        O  0.30257905  0.57377398  0.10302837    -0.82440
O539        O  0.29679723  0.60775995  0.17164451    -0.82490
O540        O  0.41689754  0.58674616  0.03301606    -0.82460
O541        O  0.32383973  0.48746716  0.08405278    -0.82420
O542        O  0.42252643  0.66418310  0.16298811    -0.82490
Co543      Co  0.41596540  0.54564022  0.08080597     1.51530
Co544      Co  0.35472720  0.61015549  0.19550243     1.51690
Co545      Co  0.43379727  0.60806277  0.13401657     1.51570
Co546      Co  0.34269288  0.53373400  0.12770263     1.51470
O547        O  0.38137633  0.58040102  0.13717752    -1.44380
C548        C  0.34356054  0.49729545  0.04649253     1.07170
C549        C  0.38678141  0.68155268  0.16052002     1.07260
C550        C  0.41111368  0.62426866  0.03905927     1.07200
C551        C  0.28081088  0.59299782  0.13492697     1.07170
O552        O  0.44645900  0.77353139  0.08701908    -0.82450
O553        O  0.34154628  0.82193837  0.21219083    -0.82470
O554        O  0.43654478  0.83041514  0.16943192    -0.82480
O555        O  0.35618189  0.74531049  0.16883291    -0.82420
O556        O  0.39756793  0.87108861  0.21067955    -0.82540
O557        O  0.38672796  0.72830640  0.10033575    -0.82460
O558        O  0.28520023  0.79828203  0.19183488    -0.82450
O559        O  0.45803671  0.83831002  0.08159422    -0.82480
C560        C  0.47080259  0.80197292  0.08593752     1.07240
C561        C  0.30476960  0.81856755  0.22174610     1.07130
C562        C  0.42807203  0.84659730  0.20832980     1.07270
C563        C  0.38000740  0.72204006  0.14397871     1.07140
O564        O  0.33638013  0.77863013  0.03350153    -0.82450
O565        O  0.36550963  0.91498223  0.13450147    -0.82520
O566        O  0.38841013  0.88113847  0.05737462    -0.82460
O567        O  0.28479473  0.81174117  0.09464219    -0.82440
O568        O  0.29011314  0.86592854  0.14185395    -0.82490
O569        O  0.40553784  0.82500215  0.01585899    -0.82460
O570        O  0.31204473  0.73437807  0.08093300    -0.82420
O571        O  0.43462030  0.90803753  0.13048539    -0.82490
Co572      Co  0.39163057  0.77934346  0.06200426     1.51530
Co573      Co  0.34965734  0.86413081  0.16787450     1.51690
Co574      Co  0.40883713  0.85746226  0.11682944     1.51570
Co575      Co  0.31879743  0.77844246  0.13277348     1.51470
O576        O  0.36816676  0.81564697  0.11698460    -1.44380
C577        C  0.31724671  0.74588342  0.03903489     1.07170
C578        C  0.40188899  0.93058721  0.13628891     1.07260
C579        C  0.40141878  0.86422469  0.01902345     1.07200
C580        C  0.26863157  0.84132714  0.11665737     1.07170
O581        O  0.13758598  0.67987151  0.96795490    -0.82450
O582        O  0.12280499  0.66814463  0.76599326    -0.82470
O583        O  0.07531403  0.62317332  0.90129639    -0.82480
O584        O  0.20249320  0.70389406  0.83264944    -0.82420
O585        O  0.07555900  0.62105943  0.82386054    -0.82540
O586        O  0.20090885  0.69545903  0.90941780    -0.82460
O587        O  0.17832686  0.69707473  0.79670418    -0.82450
O588        O  0.08978239  0.63942607  0.93888014    -0.82480
C589        C  0.11792868  0.64597440  0.96836042     1.07240
C590        C  0.16208236  0.67618294  0.76438954     1.07130
C591        C  0.07897966  0.60276453  0.86237432     1.07270
C592        C  0.21982673  0.69003652  0.87045699     1.07140
O593        O  0.16683363  0.77916184  0.88698113    -0.82450
O594        O  0.01642025  0.69533609  0.85235417    -0.82520
O595        O  0.06726898  0.71582386  0.96526926    -0.82460
O596        O  0.11557706  0.74284021  0.76633041    -0.82440
O597        O  0.06436042  0.74022354  0.80914695    -0.82490
O598        O  0.09840122  0.76239936  0.93032346    -0.82460
O599        O  0.17391874  0.78062209  0.80928347    -0.82420
O600        O  0.01283255  0.67519283  0.92588960    -0.82490
Co601      Co  0.14800531  0.72604741  0.92003691     1.51530
Co602      Co  0.07320485  0.68130189  0.81595034     1.51690
Co603      Co  0.06558762  0.68494962  0.90218986     1.51570
Co604      Co  0.14440646  0.73681127  0.83194050     1.51470
O605        O  0.11745952  0.69329928  0.86712312    -1.44380
C606        C  0.17530028  0.79837413  0.84890625     1.07170
C607        C  0.99625809  0.69294471  0.89194107     1.07260
C608        C  0.07750729  0.75283304  0.96469666     1.07200
C609        C  0.07645974  0.74257906  0.76846258     1.07490
O610        O  0.16960978  0.00469542  0.93354221    -0.82450
O611        O  0.18893139  0.97543416  0.80576603    -0.82470
O612        O  0.22674437  0.95118446  0.88408831    -0.82480
O613        O  0.10207306  0.54369963  0.82222063    -0.82420
O614        O  0.23128179  0.90800444  0.82712096    -0.82540
O615        O  0.09673347  0.53826511  0.89910214    -0.82460
O616        O  0.13793945  0.99568287  0.77042635    -0.82450
O617        O  0.19619899  0.95463899  0.97034031    -0.82480
C618        C  0.18757198  0.99227307  0.96921715     1.07240
C619        C  0.17563119  0.98637610  0.76794677     1.07130
C620        C  0.24888844  0.93030229  0.85659410     1.07270
C621        C  0.09237924  0.55949362  0.86138690     1.07140
O622        O  0.05750207  0.96221203  0.92088498    -0.82450
O623        O  0.15783102  0.86259842  0.82024007    -0.82520
O624        O  0.15049198  0.88322818  0.94886698    -0.82460
O625        O  0.07539662  0.96531689  0.80689232    -0.82440
O626        O  0.11900915  0.92036780  0.77201895    -0.82490
O627        O  0.12227042  0.93907232  0.98153231    -0.82460
O628        O  0.05809932  0.98091609  0.84647576    -0.82420
O629        O  0.19923271  0.86117378  0.88094181    -0.82490
Co630      Co  0.11458494  0.98084564  0.92730148     1.51530
Co631      Co  0.17141238  0.91901348  0.81097263     1.51690
Co632      Co  0.18848052  0.91618091  0.91519307     1.51570
Co633      Co  0.12114695  0.99217198  0.84077069     1.51470
O634        O  0.14054597  0.93981070  0.87300872    -1.44380
C635        C  0.03784615  0.97129507  0.88412496     1.07170
C636        C  0.17796576  0.84278715  0.85021649     1.07260
C637        C  0.13616973  0.90176104  0.98454492     1.07200
C638        C  0.08326288  0.93800201  0.77504912     1.07170
O639        O  0.38644473  0.68491687  0.00391648    -0.82450
O640        O  0.38615010  0.64120350  0.78124744    -0.82470
O641        O  0.33994026  0.59457645  0.89470616    -0.82480
O642        O  0.43679661  0.73714603  0.87363100    -0.82420
O643        O  0.39882397  0.61491132  0.86857484    -0.82540
O644        O  0.43693754  0.70449349  0.93834954    -0.82460
O645        O  0.43104960  0.67865030  0.81505535    -0.82450
O646        O  0.38202759  0.62762983  0.96519723    -0.82480
C647        C  0.39424406  0.64710065  0.00040202     1.07240
C648        C  0.42324588  0.65427529  0.78225109     1.07130
C649        C  0.37786102  0.58636968  0.88336655     1.07270
C650        C  0.45482767  0.71224681  0.90075125     1.07140
O651        O  0.38126103  0.77491096  0.91957458    -0.82450
O652        O  0.28757382  0.66309319  0.83694244    -0.82520
O653        O  0.31152661  0.68177186  0.99531172    -0.82460
O654        O  0.35195894  0.71560951  0.77778681    -0.82440
O655        O  0.30773650  0.67145949  0.80318841    -0.82490
O656        O  0.32103082  0.73690174  0.95923858    -0.82460
O657        O  0.34676668  0.76366033  0.85633914    -0.82420
O658        O  0.27333240  0.65877564  0.91319558    -0.82490
Co659      Co  0.37957647  0.72191034  0.94920332     1.51530
Co660      Co  0.35009096  0.64192301  0.84279953     1.51690
Co661      Co  0.32884116  0.64453602  0.93725869     1.51570
Co662      Co  0.38799754  0.72047506  0.83633854     1.51470
O663        O  0.35994627  0.68650128  0.89119090    -1.44380
C664        C  0.35397854  0.78626337  0.89136337     1.07170
C665        C  0.26187446  0.66864515  0.87259967     1.07260
C666        C  0.31038286  0.72072779  0.99607626     1.07200
C667        C  0.31865941  0.69688917  0.77199937     1.07170
O668        O  0.41957417  0.92866678  0.98695657    -0.82450
O669        O  0.40450660  0.88418365  0.79251700    -0.82470
O670        O  0.33369712  0.85389866  0.92180681    -0.82480
O671        O  0.47152820  0.99237074  0.85486211    -0.82420
O672        O  0.36367417  0.84157352  0.85055623    -0.82540
O673        O  0.47358060  0.95628959  0.91889032    -0.82460
O674        O  0.45269069  0.92722267  0.80391078    -0.82450
O675        O  0.40644989  0.88056186  0.93756797    -0.82480
C676        C  0.41318627  0.89098380  0.97911537     1.07240
C677        C  0.43833318  0.89871321  0.77966669     1.07130
C678        C  0.34636435  0.82903362  0.88734018     1.07270
C679        C  0.49204587  0.97211062  0.88492718     1.07140
O680        O  0.41983627  0.53135260  0.91038430    -0.82450
O681        O  0.31735684  0.90459704  0.84103382    -0.82520
O682        O  0.34220571  0.93643558  0.98843677    -0.82460
O683        O  0.37079990  0.96885789  0.77817205    -0.82440
O684        O  0.34136759  0.91250513  0.80213279    -0.82490
O685        O  0.36370316  0.99599710  0.96687869    -0.82460
O686        O  0.38780265  0.52597476  0.84216112    -0.82420
O687        O  0.30430878  0.93861495  0.90579882    -0.82490
Co688      Co  0.41826555  0.97635045  0.94133198     1.51530
Co689      Co  0.37884267  0.89566785  0.85670620     1.51690
Co690      Co  0.35610317  0.91117313  0.91954681     1.51570
Co691      Co  0.41830761  0.97647142  0.82368580     1.51470
O692        O  0.38983059  0.95230220  0.88272929    -1.44380
C693        C  0.39479743  0.54523946  0.87973996     1.07170
C694        C  0.29157803  0.92479034  0.86790431     1.07260
C695        C  0.34706262  0.97503671  0.99842587     1.07200
C696        C  0.34270306  0.94271586  0.77394526     1.07170
O697        O  0.01026553  0.72220970  0.73536822    -0.82450
O698        O  0.01908349  0.68344788  0.52062374    -0.82470
O699        O  0.09026102  0.63110035  0.65310574    -0.82480
O700        O  0.48998643  0.75393976  0.59832631    -0.82420
O701        O  0.08235194  0.66110162  0.58491646    -0.82540
O702        O  0.48076425  0.76447741  0.67333508    -0.82460
O703        O  0.99007213  0.73529282  0.56022457    -0.82450
O704        O  0.06722449  0.69845017  0.70246729    -0.82480
C705        C  0.05003364  0.72292908  0.73146799     1.07240
C706        C  0.00493508  0.72119132  0.52149913     1.07130
C707        C  0.10579605  0.64741796  0.61670304     1.07270
C708        C  0.49692106  0.77524610  0.63575966     1.07140
O709        O  0.40575843  0.71253568  0.65693604    -0.82450
O710        O  0.03702965  0.58695346  0.61171276    -0.82520
O711        O  0.49411080  0.65306476  0.74784134    -0.82460
O712        O  0.44692388  0.66328132  0.53905478    -0.82440
O713        O  0.47415567  0.61102468  0.56935230    -0.82490
O714        O  0.44315120  0.65493795  0.70262523    -0.82460
O715        O  0.40862908  0.72835704  0.58240426    -0.82420
O716        O  0.00952671  0.59644890  0.68166385    -0.82490
Co717      Co  0.46432916  0.70883437  0.68592893     1.51530
Co718      Co  0.02661528  0.63954004  0.57624807     1.51690
Co719      Co  0.03755179  0.64719868  0.69137559     1.51570
Co720      Co  0.45738935  0.69994152  0.60126446     1.51470
O721        O  0.50489243  0.67532894  0.63542771    -1.44380
C722        C  0.38743402  0.72254315  0.61901524     1.07170
C723        C  0.01432354  0.57470648  0.64537262     1.07260
C724        C  0.45501587  0.64933269  0.74291018     1.07200
C725        C  0.45370728  0.62415046  0.53667397     1.07170
O726        O  0.49267791  0.87705739  0.72570199    -0.82450
O727        O  0.47305123  0.93058518  0.51802547    -0.82470
O728        O  0.41956432  0.98222837  0.66206649    -0.82480
O729        O  0.02360754  0.83626100  0.60188548    -0.82420
O730        O  0.41976178  0.94759247  0.59581493    -0.82540
O731        O  0.03310089  0.82546713  0.67695604    -0.82460
O732        O  0.47918541  0.88108471  0.56166116    -0.82450
O733        O  0.44185818  0.91219574  0.70035067    -0.82480
C734        C  0.45622512  0.89113481  0.73238599     1.07240
C735        C  0.47295986  0.89189532  0.52148894     1.07130
C736        C  0.39993422  0.96247280  0.63113045     1.07270
C737        C  0.02119143  0.81285277  0.63745106     1.07140
O738        O  0.08333378  0.88870105  0.67158708    -0.82450
O739        O  0.46950210  0.52263329  0.61681200    -0.82520
O740        O  0.01867666  0.95142158  0.73815611    -0.82460
O741        O  0.04678637  0.94045659  0.52665779    -0.82440
O742        O  0.02734679  0.99431888  0.56582146    -0.82490
O743        O  0.06092053  0.90280500  0.70692677    -0.82460
O744        O  0.09481144  0.90151373  0.59726291    -0.82420
O745        O  0.50393643  0.51197777  0.68083384    -0.82490
Co746      Co  0.02042590  0.88025018  0.66106827     1.51530
Co747      Co  0.47433950  0.96962618  0.57894763     1.51690
Co748      Co  0.47385555  0.96181509  0.69025454     1.51570
Co749      Co  0.03550673  0.89486542  0.57798459     1.51470
O750        O  0.00647855  0.93511760  0.63101213    -1.44380
C751        C  0.10904622  0.89698616  0.63829839     1.07170
C752        C  0.49630684  0.53400046  0.64630697     1.07260
C753        C  0.05241814  0.93024626  0.73877844     1.07200
C754        C  0.04183055  0.97998396  0.52881360     1.07170
O755        O  0.21539039  0.63925005  0.72037104    -0.82450
O756        O  0.22177791  0.74908283  0.54485131    -0.82470
O757        O  0.22968544  0.77395963  0.64701039    -0.82480
O758        O  0.16448421  0.66080055  0.57016609    -0.82420
O759        O  0.27981834  0.77961818  0.59600366    -0.82540
O760        O  0.17772372  0.63769818  0.63987909    -0.82460
O761        O  0.21025187  0.69417895  0.50411024    -0.82450
O762        O  0.19633941  0.70212758  0.69590164    -0.82480
C763        C  0.19062460  0.67082462  0.72364821     1.07240
C764        C  0.20658207  0.73330735  0.50986023     1.07130
C765        C  0.24916342  0.79588544  0.61810739     1.07270
C766        C  0.15156215  0.64925072  0.60916460     1.07140
O767        O  0.26876501  0.60864371  0.64370838    -0.82450
O768        O  0.33047004  0.70862060  0.57507575    -0.82520
O769        O  0.26879845  0.73544606  0.72724603    -0.82460
O770        O  0.28170666  0.63717247  0.54351533    -0.82440
O771        O  0.28489375  0.68800337  0.49998800    -0.82490
O772        O  0.28842203  0.67334989  0.69974730    -0.82460
O773        O  0.22808085  0.59482698  0.58578061    -0.82420
O774        O  0.31621094  0.73100623  0.64777544    -0.82490
Co775      Co  0.23520827  0.65858176  0.66180323     1.51530
Co776      Co  0.27714796  0.72811221  0.55729064     1.51690
Co777      Co  0.25405305  0.71784254  0.66468651     1.51570
Co778      Co  0.22237053  0.64936795  0.55379423     1.51470
O779        O  0.24610313  0.68957913  0.60203501    -1.44380
C780        C  0.25779710  0.58393136  0.61199103     1.07170
C781        C  0.34238008  0.72021908  0.61467226     1.07260
C782        C  0.29120100  0.70271698  0.73134362     1.07200
C783        C  0.29016523  0.64951153  0.50467494     1.07170
O784        O  0.21529543  0.93401984  0.73148665    -0.82450
O785        O  0.25613917  0.97575781  0.51904805    -0.82470
O786        O  0.25857294  0.52792236  0.65602584    -0.82480
O787        O  0.16556574  0.93897703  0.62753110    -0.82420
O788        O  0.29128671  0.51705975  0.58704477    -0.82540
O789        O  0.18108940  0.88483974  0.66671022    -0.82460
O790        O  0.19481231  0.98148556  0.55235453    -0.82450
O791        O  0.20835269  0.98773414  0.69224681    -0.82480
C792        C  0.19780422  0.96837540  0.72705078     1.07240
C793        C  0.22181322  0.99585758  0.52438892     1.07130
C794        C  0.27010042  0.54041565  0.61726249     1.07270
C795        C  0.15323020  0.90796951  0.64758048     1.07140
O796        O  0.26882899  0.86192105  0.63720549    -0.82450
O797        O  0.33833971  0.93254969  0.60733807    -0.82520
O798        O  0.28835004  0.98277132  0.73669502    -0.82460
O799        O  0.23431122  0.90142833  0.51807363    -0.82440
O800        O  0.29710915  0.89425756  0.54323750    -0.82490
O801        O  0.29951045  0.91705857  0.71078128    -0.82460
O802        O  0.21187935  0.85966297  0.59480527    -0.82420
O803        O  0.32999986  0.98069989  0.65884388    -0.82490
Co804      Co  0.24284189  0.90189901  0.67990817     1.51530
Co805      Co  0.29363069  0.95359242  0.56866061     1.51690
Co806      Co  0.26762396  0.97414585  0.67433391     1.51570
Co807      Co  0.20322859  0.92241642  0.57643252     1.51470
O808        O  0.24968679  0.94134480  0.61944323    -1.44380
C809        C  0.24269260  0.84121178  0.61569595     1.07170
C810        C  0.35425449  0.95793393  0.63384737     1.07260
C811        C  0.30818556  0.94777263  0.73961198     1.07200
C812        C  0.26864816  0.88094936  0.51742679     1.07170
O813        O  0.49070460  0.60326433  0.28765268    -0.82450
O814        O  0.45496717  0.55634360  0.49480709    -0.82470
O815        O  0.41563719  0.50027391  0.34634085    -0.82480
O816        O  0.00668947  0.64793897  0.40834707    -0.82420
O817        O  0.40855268  0.53714543  0.41167317    -0.82540
O818        O  0.02922306  0.65123335  0.33556304    -0.82460
O819        O  0.45938406  0.60840142  0.45445863    -0.82450
O820        O  0.43906452  0.56574740  0.30301662    -0.82480
C821        C  0.45642498  0.58956621  0.27619867     1.07240
C822        C  0.45092740  0.59541598  0.49343321     1.07130
C823        C  0.39235782  0.51885813  0.37685202     1.07270
C824        C  0.01270114  0.66838450  0.37114067     1.07140
O825        O  0.07336080  0.58633916  0.34818394    -0.82450
O826        O  0.45930079  0.96158590  0.40077617    -0.82520
O827        O  0.02072698  0.52598952  0.27723519    -0.82460
O828        O  0.03134503  0.54596547  0.48873496    -0.82440
O829        O  0.01376900  0.48910025  0.45519098    -0.82490
O830        O  0.05740642  0.57457094  0.31000923    -0.82460
O831        O  0.07782244  0.58449400  0.42478930    -0.82420
O832        O  0.50251994  0.96916736  0.34175674    -0.82490
Co833      Co  0.01245203  0.59961167  0.35321781     1.51530
Co834      Co  0.46173398  0.51572556  0.43554279     1.51690
Co835      Co  0.47238138  0.51846043  0.32346444     1.51570
Co836      Co  0.01739579  0.59124079  0.43842135     1.51470
O837        O  0.49595409  0.54808325  0.38472928    -1.44380
C838        C  0.09529322  0.58428310  0.38493210     1.07170
C839        C  0.48615347  0.94684114  0.37161959     1.07260
C840        C  0.05206498  0.54864927  0.27641945     1.07200
C841        C  0.03269398  0.50624075  0.48710500     1.07170
O842        O  0.00996020  0.76735644  0.25188461    -0.82450
O843        O  0.02321108  0.76263384  0.45020960    -0.82470
O844        O  0.07326172  0.86152568  0.34739001    -0.82480
O845        O  0.47225301  0.72800110  0.39631181    -0.82420
O846        O  0.07464984  0.81872988  0.40568038    -0.82540
O847        O  0.49854503  0.72275015  0.32515794    -0.82460
O848        O  0.95963758  0.76611049  0.47812536    -0.82450
O849        O  0.06298279  0.79565348  0.28521386    -0.82480
C850        C  0.04859934  0.77460717  0.25186354     1.07240
C851        C  0.99633946  0.75010840  0.48105571     1.07130
C852        C  0.09275007  0.84321509  0.37916136     1.07270
C853        C  0.49517019  0.70936718  0.36544712     1.07140
O854        O  0.41159630  0.75253610  0.33810306    -0.82450
O855        O  0.00967700  0.88269298  0.40041471    -0.82520
O856        O  0.48924188  0.84015161  0.25139673    -0.82460
O857        O  0.45823457  0.84766233  0.45101057    -0.82440
O858        O  0.52032768  0.84426497  0.48124300    -0.82490
O859        O  0.43275114  0.81348453  0.27937755    -0.82460
O860        O  0.40726906  0.79278986  0.40130417    -0.82420
O861        O  0.99139178  0.88832366  0.32648591    -0.82490
Co862      Co  0.46526877  0.76708396  0.30372476     1.51530
Co863      Co  0.01443797  0.82143337  0.41824409     1.51690
Co864      Co  0.02644364  0.84263552  0.30751277     1.51570
Co865      Co  0.46759246  0.78900592  0.41641581     1.51470
O866        O  0.49317319  0.80540308  0.35246981    -1.44380
C867        C  0.38958369  0.77202826  0.36945481     1.07170
C868        C  0.99458228  0.90329946  0.36688072     1.07260
C869        C  0.45063692  0.83477058  0.24953905     1.07200
C870        C  0.48372820  0.86050752  0.48295762     1.07170
O871        O  0.19329829  0.52549040  0.30090257    -0.82450
O872        O  0.21910336  0.51585409  0.44760352    -0.82470
O873        O  0.22486150  0.98250845  0.36080844    -0.82480
O874        O  0.16092119  0.57367113  0.41595118    -0.82420
O875        O  0.27694051  0.97274397  0.40471337    -0.82540
O876        O  0.15777147  0.59605150  0.34389600    -0.82460
O877        O  0.21475403  0.56704835  0.49086588    -0.82450
O878        O  0.24641972  0.49365830  0.26753805    -0.82480
C879        C  0.20853072  0.50727132  0.26397497     1.07240
C880        C  0.21271874  0.52804093  0.48779256     1.07130
C881        C  0.24528164  0.95915484  0.38558848     1.07270
C882        C  0.14028253  0.58308248  0.38072610     1.07140
O883        O  0.23519288  0.63782374  0.31929691    -0.82450
O884        O  0.32942022  0.54266039  0.40604846    -0.82520
O885        O  0.30294126  0.55491158  0.30350781    -0.82460
O886        O  0.26176641  0.63242216  0.43506097    -0.82440
O887        O  0.28597189  0.58096594  0.47318778    -0.82490
O888        O  0.25508109  0.57328166  0.25872547    -0.82460
O889        O  0.20052980  0.64995183  0.38475022    -0.82420
O890        O  0.32329180  0.49945092  0.34589636    -0.82490
Co891      Co  0.21343114  0.58217985  0.31316783     1.51530
Co892      Co  0.27522130  0.53121773  0.42877729     1.51690
Co893      Co  0.26219683  0.52029684  0.33100216     1.51570
Co894      Co  0.21193032  0.60194492  0.42729112     1.51470
O895        O  0.24677120  0.56527343  0.37673677    -1.44380
C896        C  0.22519179  0.66198791  0.35288598     1.07170
C897        C  0.34635213  0.51969921  0.37493850     1.07260
C898        C  0.29174651  0.56050088  0.26321645     1.07200
C899        C  0.28351560  0.61971930  0.46683108     1.07170
O900        O  0.17467707  0.82226586  0.30183317    -0.82450
O901        O  0.21188115  0.74958052  0.43244711    -0.82470
O902        O  0.23095863  0.72804430  0.32082962    -0.82480
O903        O  0.15577527  0.82833248  0.41435919    -0.82420
O904        O  0.26805756  0.71588657  0.38265504    -0.82540
O905        O  0.15820299  0.87346667  0.36009278    -0.82460
O906        O  0.20254666  0.80031009  0.47900990    -0.82450
O907        O  0.22114142  0.79312580  0.25804669    -0.82480
C908        C  0.18731182  0.81495708  0.26194596     1.07240
C909        C  0.20077166  0.76187005  0.47159534     1.07130
C910        C  0.24109458  0.70430076  0.35310349     1.07270
C911        C  0.13727109  0.84925191  0.38493553     1.07140
O912        O  0.25299389  0.89488978  0.35402758    -0.82450
O913        O  0.32362088  0.78736945  0.40517041    -0.82520
O914        O  0.29995397  0.82210433  0.30255341    -0.82460
O915        O  0.26808869  0.86006520  0.43972342    -0.82440
O916        O  0.27411106  0.80962817  0.48187527    -0.82490
O917        O  0.25357198  0.85712208  0.26881233    -0.82460
O918        O  0.20764147  0.90286054  0.40985319    -0.82420
O919        O  0.32079708  0.75333552  0.33864524    -0.82490
Co920      Co  0.21426694  0.85754881  0.32757270     1.51530
Co921      Co  0.26725237  0.77015524  0.42049233     1.51690
Co922      Co  0.26492322  0.77621373  0.31095480     1.51570
Co923      Co  0.21148744  0.84343387  0.42830170     1.51470
O924        O  0.23776995  0.80925851  0.37029673    -1.44380
C925        C  0.23599620  0.91718081  0.38483417     1.07170
C926        C  0.34257599  0.77064006  0.37056848     1.07260
C927        C  0.28776392  0.83722913  0.26601900     1.07200
C928        C  0.27601788  0.84853500  0.47890745     1.07170
O929        O  0.59623903  0.01184364  0.22171963    -0.82450
O930        O  0.64324635  0.12695143  0.03964501    -0.82470
O931        O  0.62112972  0.14079615  0.14440609    -0.82480
O932        O  0.56287516  0.07686531  0.07674643    -0.82420
O933        O  0.68015938  0.14783395  0.10821739    -0.82540
O934        O  0.56032731  0.04703897  0.14562696    -0.82460
O935        O  0.61513800  0.07744634  0.00209218    -0.82450
O936        O  0.59302944  0.08042845  0.21494637    -0.82480
C937        C  0.58240484  0.04685031  0.23664655     1.07240
C938        C  0.62546571  0.11491538  0.00459610     1.07130
C939        C  0.64615790  0.16368961  0.12395962     1.07270
C940        C  0.54442915  0.07036537  0.11430647     1.07140
O941        O  0.61477026  0.47161609  0.13883818    -0.82450
O942        O  0.72375340  0.06424796  0.10462187    -0.82520
O943        O  0.67659779  0.05932713  0.22304348    -0.82460
O944        O  0.65056983  0.00055665  0.03820613    -0.82440
O945        O  0.69155011  0.05062911  0.01941880    -0.82490
O946        O  0.67595919  0.00237441  0.18512918    -0.82460
O947        O  0.57423350  0.48699183  0.08134111    -0.82420
O948        O  0.71048698  0.10722799  0.16381141    -0.82490
Co949      Co  0.62035053  0.02740257  0.16369710     1.51530
Co950      Co  0.68277621  0.09324741  0.07168196     1.51690
Co951      Co  0.64837326  0.09469424  0.17819268     1.51570
Co952      Co  0.60543320  0.03832104  0.05753866     1.51470
O953        O  0.64295764  0.05918129  0.11240470    -1.44380
C954        C  0.58737809  0.46075901  0.11092495     1.07170
C955        C  0.73639963  0.08793659  0.13543630     1.07260
C956        C  0.68881319  0.02260618  0.21997332     1.07200
C957        C  0.67886946  0.01447782  0.01298093     1.07170
O958        O  0.66681546  0.23251228  0.11950905    -0.82450
O959        O  0.63869363  0.34276875  0.03062953    -0.82470
O960        O  0.59746943  0.26628295  0.04235929    -0.82480
O961        O  0.70398241  0.37064820  0.12044794    -0.82420
O962        O  0.56233379  0.31672829  0.00846827    -0.82540
O963        O  0.70968976  0.30424698  0.13988197    -0.82460
O964        O  0.64437642  0.40116941  0.06855271    -0.82450
O965        O  0.60028984  0.22273159  0.12326734    -0.82480
C966        C  0.63732188  0.20810442  0.12020810     1.07240
C967        C  0.64172432  0.38103088  0.02976421     1.07130
C968        C  0.57755635  0.27965134  0.00682557     1.07270
C969        C  0.72468066  0.33832278  0.12542644     1.07140
O970        O  0.63717078  0.31894906  0.20567648    -0.82450
O971        O  0.53500013  0.32551302  0.09936642    -0.82520
O972        O  0.55868775  0.29216942  0.17381120    -0.82460
O973        O  0.58928042  0.39702304  0.14951117    -0.82440
O974        O  0.57015902  0.39404322  0.07566340    -0.82490
O975        O  0.60796548  0.25325652  0.20167067    -0.82460
O976        O  0.66894074  0.37181048  0.20635486    -0.82420
O977        O  0.52886844  0.25817297  0.09391597    -0.82490
Co978      Co  0.65572454  0.27875408  0.16390261     1.51530
Co979      Co  0.58932319  0.33150357  0.06725410     1.51690
Co980      Co  0.58045807  0.28109609  0.10924780     1.51570
Co981      Co  0.64798492  0.38083110  0.13688671     1.51470
O982        O  0.62714496  0.31958532  0.12178616    -1.44380
C983        C  0.66482888  0.33659217  0.22331421     1.07170
C984        C  0.51300751  0.29426625  0.09290875     1.07260
C985        C  0.57231372  0.27133288  0.20693937     1.07200
C986        C  0.57580564  0.41588909  0.11357286     1.07170
O987        O  0.97518857  0.05551822  0.10380590    -0.82450
O988        O  0.85476088  0.05739738  0.22464631    -0.82470
O989        O  0.95119164  0.08224673  0.19363404    -0.82480
O990        O  0.87734192  0.49468490  0.16059311    -0.82420
O991        O  0.90499757  0.12084791  0.23234054    -0.82540
O992        O  0.92414090  0.49066358  0.10581323    -0.82460
O993        O  0.80521207  0.03024023  0.18594677    -0.82450
O994        O  0.98987026  0.12049053  0.12353931    -0.82480
C995        C  0.00124002  0.08318273  0.11515429     1.07240
C996        C  0.81859558  0.04562357  0.22427075     1.07130
C997        C  0.93749556  0.09853450  0.23174843     1.07270
C998        C  0.90374950  0.47424212  0.13708158     1.07140
O999        O  0.86197948  0.03154161  0.04913734    -0.82450
O1000       O  0.85448313  0.16236967  0.16726231    -0.82520
O1001       O  0.91603834  0.14008340  0.07889408    -0.82460
O1002       O  0.80258191  0.07377298  0.10302537    -0.82440
O1003       O  0.79679812  0.10775815  0.17164194    -0.82490
O1004       O  0.91689637  0.08674640  0.03301497    -0.82460
O1005       O  0.82384117  0.98746574  0.08405218    -0.82420
O1006       O  0.92252594  0.16418346  0.16298718    -0.82490
Co1007     Co  0.91596642  0.04564013  0.08080450     1.51530
Co1008     Co  0.85472766  0.11015418  0.19550123     1.51690
Co1009     Co  0.93379796  0.10806329  0.13401537     1.51570
Co1010     Co  0.84269488  0.03373308  0.12770084     1.51470
O1011       O  0.88137759  0.08040045  0.13717649    -1.44380
C1012       C  0.84356191  0.99729395  0.04649184     1.07170
C1013       C  0.88678051  0.18155229  0.16051952     1.07260
C1014       C  0.91111269  0.12426891  0.03905828     1.07200
C1015       C  0.78081306  0.09299734  0.13492291     1.07170
O1016       O  0.94645590  0.27353152  0.08701929    -0.82450
O1017       O  0.84154354  0.32193836  0.21219111    -0.82470
O1018       O  0.93654021  0.33041388  0.16943212    -0.82480
O1019       O  0.85617886  0.24530928  0.16883279    -0.82420
O1020       O  0.89756445  0.37108887  0.21067895    -0.82540
O1021       O  0.88672544  0.22830616  0.10033552    -0.82460
O1022       O  0.78519762  0.29828206  0.19183561    -0.82450
O1023       O  0.95803297  0.33831019  0.08159467    -0.82480
C1024       C  0.97079925  0.30197324  0.08593753     1.07240
C1025       C  0.80476697  0.31856767  0.22174659     1.07130
C1026       C  0.92806812  0.34659701  0.20832966     1.07270
C1027       C  0.88000520  0.22203963  0.14397850     1.07140
O1028       O  0.83637717  0.27862973  0.03350085    -0.82450
O1029       O  0.86550573  0.41498192  0.13450101    -0.82520
O1030       O  0.88840674  0.38113817  0.05737446    -0.82460
O1031       O  0.78479020  0.31173915  0.09464289    -0.82440
O1032       O  0.79010959  0.36592745  0.14185358    -0.82490
O1033       O  0.90553476  0.32500196  0.01585892    -0.82460
O1034       O  0.81204306  0.23437697  0.08093203    -0.82420
O1035       O  0.93461632  0.40803647  0.13048600    -0.82490
Co1036     Co  0.89162745  0.27934326  0.06200409     1.51530
Co1037     Co  0.84965376  0.36413043  0.16787413     1.51690
Co1038     Co  0.90883302  0.35746147  0.11682955     1.51570
Co1039     Co  0.81879340  0.27844071  0.13277378     1.51470
O1040       O  0.86816249  0.31564624  0.11698428    -1.44380
C1041       C  0.81724423  0.24588277  0.03903407     1.07170
C1042       C  0.90188526  0.43058653  0.13628888     1.07260
C1043       C  0.90141590  0.36422448  0.01902342     1.07200
C1044       C  0.76862769  0.34132577  0.11665768     1.07170
O1045       O  0.63758188  0.17986868  0.96795560    -0.82450
O1046       O  0.62280230  0.16814463  0.76599252    -0.82470
O1047       O  0.57531067  0.12317218  0.90129465    -0.82480
O1048       O  0.70249033  0.20389297  0.83264980    -0.82420
O1049       O  0.57555676  0.12105851  0.82385882    -0.82540
O1050       O  0.70090561  0.19545557  0.90941784    -0.82460
O1051       O  0.67832410  0.19707423  0.79670406    -0.82450
O1052       O  0.58977860  0.13942423  0.93887851    -0.82480
C1053       C  0.61792397  0.14597183  0.96835999     1.07240
C1054       C  0.66207966  0.17618293  0.76438897     1.07130
C1055       C  0.57897725  0.10276355  0.86237254     1.07270
C1056       C  0.71982373  0.19003439  0.87045696     1.07140
O1057       O  0.66683210  0.27915948  0.88698240    -0.82450
O1058       O  0.51641737  0.19533485  0.85235352    -0.82520
O1059       O  0.56726576  0.21582267  0.96526924    -0.82460
O1060       O  0.61557392  0.24284014  0.76633124    -0.82440
O1061       O  0.56435733  0.24022290  0.80914773    -0.82490
O1062       O  0.59839947  0.26239804  0.93032487    -0.82460
O1063       O  0.67391601  0.28062095  0.80928460    -0.82420
O1064       O  0.51282949  0.17519183  0.92588902    -0.82490
Co1065     Co  0.64800270  0.22604488  0.92003769     1.51530
Co1066     Co  0.57320211  0.18130111  0.81594977     1.51690
Co1067     Co  0.56558453  0.18494865  0.90218937     1.51570
Co1068     Co  0.64440359  0.23681026  0.83194107     1.51470
O1069       O  0.61745651  0.19329809  0.86712303    -1.44380
C1070       C  0.67529850  0.29837226  0.84890768     1.07170
C1071       C  0.49625519  0.19294368  0.89194043     1.07260
C1072       C  0.57750461  0.25283177  0.96469738     1.07200
C1073       C  0.57645660  0.24257900  0.76846344     1.07490
O1074       O  0.66961004  0.50469266  0.93354517    -0.82450
O1075       O  0.68893055  0.47543234  0.80576740    -0.82470
O1076       O  0.72674324  0.45118237  0.88409039    -0.82480
O1077       O  0.60207355  0.04369929  0.82221953    -0.82420
O1078       O  0.73128070  0.40800274  0.82712261    -0.82540
O1079       O  0.59673203  0.03826458  0.89910088    -0.82460
O1080       O  0.63793878  0.49568137  0.77042762    -0.82450
O1081       O  0.69619823  0.45463532  0.97034272    -0.82480
C1082       C  0.68757197  0.49226954  0.96922005     1.07240
C1083       C  0.67563050  0.48637454  0.76794817     1.07130
C1084       C  0.74888731  0.43030090  0.85659549     1.07270
C1085       C  0.59237819  0.05949301  0.86138548     1.07140
O1086       O  0.55750127  0.46221179  0.92088633    -0.82450
O1087       O  0.65782971  0.36259676  0.82024198    -0.82520
O1088       O  0.65049000  0.38322596  0.94886776    -0.82460
O1089       O  0.57539582  0.46531557  0.80689350    -0.82440
O1090       O  0.61900816  0.42036621  0.77202034    -0.82490
O1091       O  0.62226875  0.43907036  0.98153303    -0.82460
O1092       O  0.55809866  0.48091509  0.84647688    -0.82420
O1093       O  0.69923178  0.36117165  0.88094331    -0.82490
Co1094     Co  0.61458459  0.48084423  0.92730318     1.51530
Co1095     Co  0.67141131  0.41901175  0.81097421     1.51690
Co1096     Co  0.68847905  0.41617866  0.91519447     1.51570
Co1097     Co  0.62114627  0.49217040  0.84077194     1.51470
O1098       O  0.64054489  0.43980911  0.87301015    -1.44380
C1099       C  0.53784545  0.47129448  0.88412617     1.07170
C1100       C  0.67796442  0.34278525  0.85021824     1.07260
C1101       C  0.63616738  0.40175893  0.98454550     1.07200
C1102       C  0.58326198  0.43800066  0.77505034     1.07170
O1103       O  0.88644229  0.18491687  0.00391595    -0.82450
O1104       O  0.88614732  0.14120408  0.78124620    -0.82470
O1105       O  0.83993900  0.09457564  0.89470553    -0.82480
O1106       O  0.93679352  0.23714644  0.87363029    -0.82420
O1107       O  0.89882187  0.11491146  0.86857315    -0.82540
O1108       O  0.93693464  0.20449328  0.93834842    -0.82460
O1109       O  0.93104653  0.17865125  0.81505417    -0.82450
O1110       O  0.88202593  0.12762988  0.96519644    -0.82480
C1111       C  0.89424222  0.14710077  0.00040131     1.07240
C1112       C  0.92324299  0.15427616  0.78224990     1.07130
C1113       C  0.87785980  0.08636949  0.88336551     1.07270
C1114       C  0.95482471  0.21224706  0.90075023     1.07140
O1115       O  0.88125816  0.27491087  0.91957460    -0.82450
O1116       O  0.78757110  0.16309248  0.83694172    -0.82520
O1117       O  0.81152426  0.18177119  0.99531083    -0.82460
O1118       O  0.85195556  0.21561017  0.77778661    -0.82440
O1119       O  0.80773363  0.17145942  0.80318776    -0.82490
O1120       O  0.82102797  0.23690119  0.95923776    -0.82460
O1121       O  0.84676331  0.26366058  0.85633945    -0.82420
O1122       O  0.77333008  0.15877387  0.91319486    -0.82490
Co1123     Co  0.87957360  0.22190993  0.94920247     1.51530
Co1124     Co  0.85008843  0.14192288  0.84279840     1.51690
Co1125     Co  0.82883917  0.14453527  0.93725792     1.51570
Co1126     Co  0.88799430  0.22047558  0.83633808     1.51470
O1127       O  0.85994348  0.18650101  0.89119001    -1.44380
C1128       C  0.85397571  0.28626361  0.89136354     1.07170
C1129       C  0.76187179  0.16864360  0.87259913     1.07260
C1130       C  0.81038028  0.22072714  0.99607543     1.07200
C1131       C  0.81865630  0.19688946  0.77199900     1.07170
O1132       O  0.91957332  0.42866628  0.98695667    -0.82450
O1133       O  0.90450560  0.38418304  0.79251658    -0.82470
O1134       O  0.83369541  0.35389935  0.92180648    -0.82480
O1135       O  0.97152854  0.49236925  0.85486159    -0.82420
O1136       O  0.86367326  0.34157328  0.85055642    -0.82540
O1137       O  0.97358068  0.45628799  0.91888983    -0.82460
O1138       O  0.95269043  0.42722078  0.80391155    -0.82450
O1139       O  0.90644844  0.38056165  0.93756805    -0.82480
C1140       C  0.91318451  0.39098346  0.97911554     1.07240
C1141       C  0.93833250  0.39871214  0.77966665     1.07130
C1142       C  0.84636258  0.32903394  0.88734013     1.07270
C1143       C  0.99204609  0.47210955  0.88492710     1.07140
O1144       O  0.91983584  0.03135290  0.91038352    -0.82450
O1145       O  0.81735602  0.40459669  0.84103416    -0.82520
O1146       O  0.84220496  0.43643675  0.98843629    -0.82460
O1147       O  0.87080003  0.46885669  0.77817162    -0.82440
O1148       O  0.84136684  0.41250467  0.80213315    -0.82490
O1149       O  0.86370396  0.49599777  0.96687830    -0.82460
O1150       O  0.88780297  0.02597470  0.84215989    -0.82420
O1151       O  0.80430842  0.43861604  0.90579832    -0.82490
Co1152     Co  0.91826589  0.47634973  0.94133153     1.51530
Co1153     Co  0.87884213  0.39566742  0.85670612     1.51690
Co1154     Co  0.85610229  0.41117357  0.91954659     1.51570
Co1155     Co  0.91830790  0.47647014  0.82368538     1.51470
O1156       O  0.88983041  0.45230179  0.88272898    -1.44380
C1157       C  0.89479705  0.04523945  0.87973891     1.07170
C1158       C  0.79157729  0.42479031  0.86790452     1.07260
C1159       C  0.84706259  0.47503780  0.99842529     1.07200
C1160       C  0.84270269  0.44271510  0.77394531     1.07170
O1161       O  0.51026242  0.22220970  0.73536882    -0.82450
O1162       O  0.51908146  0.18344752  0.52062409    -0.82470
O1163       O  0.59025901  0.13110115  0.65310662    -0.82480
O1164       O  0.98998419  0.25394025  0.59832559    -0.82420
O1165       O  0.58234988  0.16110217  0.58491716    -0.82540
O1166       O  0.98076187  0.26447821  0.67333428    -0.82460
O1167       O  0.49007040  0.23529246  0.56022506    -0.82450
O1168       O  0.56722147  0.19845083  0.70246766    -0.82480
C1169       C  0.55003052  0.22292938  0.73146862     1.07240
C1170       C  0.50493304  0.22119093  0.52149953     1.07130
C1171       C  0.60579400  0.14741836  0.61670363     1.07270
C1172       C  0.99691896  0.27524663  0.63575892     1.07140
O1173       O  0.90575604  0.21253648  0.65693494    -0.82450
O1174       O  0.53702869  0.08695379  0.61171349    -0.82520
O1175       O  0.99410805  0.15306575  0.74784057    -0.82460
O1176       O  0.94692264  0.16328140  0.53905367    -0.82440
O1177       O  0.97415459  0.11102506  0.56935161    -0.82490
O1178       O  0.94314865  0.15493880  0.70262416    -0.82460
O1179       O  0.90862675  0.22835684  0.58240286    -0.82420
O1180       O  0.50952498  0.09644894  0.68166426    -0.82490
Co1181     Co  0.96432668  0.20883522  0.68592804     1.51530
Co1182     Co  0.52661355  0.13954006  0.57624867     1.51690
Co1183     Co  0.53754938  0.14719900  0.69137610     1.51570
Co1184     Co  0.95738718  0.19994178  0.60126353     1.51470
O1185       O  0.00489028  0.17532972  0.63542713    -1.44380
C1186       C  0.88743163  0.22254333  0.61901393     1.07170
C1187       C  0.51432264  0.07470650  0.64537318     1.07260
C1188       C  0.95501315  0.14933358  0.74290917     1.07200
C1189       C  0.95370656  0.12415060  0.53667287     1.07170
O1190       O  0.99267711  0.37705737  0.72570149    -0.82450
O1191       O  0.97305021  0.43058543  0.51802536    -0.82470
O1192       O  0.91956362  0.48222867  0.66206621    -0.82480
O1193       O  0.52360653  0.33626031  0.60188616    -0.82420
O1194       O  0.91976106  0.44759291  0.59581462    -0.82540
O1195       O  0.53309949  0.32546627  0.67695676    -0.82460
O1196       O  0.97918446  0.38108494  0.56166103    -0.82450
O1197       O  0.94185723  0.41219615  0.70035093    -0.82480
C1198       C  0.95622431  0.39113467  0.73238576     1.07240
C1199       C  0.97295857  0.39189559  0.52148889     1.07130
C1200       C  0.89993352  0.46247287  0.63113031     1.07270
C1201       C  0.52119005  0.31285208  0.63745169     1.07140
O1202       O  0.58333278  0.38870011  0.67158802    -0.82450
O1203       O  0.96950188  0.02263364  0.61681133    -0.82520
O1204       O  0.51867600  0.45142085  0.73815694    -0.82460
O1205       O  0.54678559  0.44045560  0.52665837    -0.82440
O1206       O  0.52734686  0.49431781  0.56582245    -0.82490
O1207       O  0.56091953  0.40280385  0.70692784    -0.82460
O1208       O  0.59481066  0.40151306  0.59726393    -0.82420
O1209       O  0.00393656  0.01197833  0.68083303    -0.82490
Co1210     Co  0.52042489  0.38024941  0.66106905     1.51530
Co1211     Co  0.97433885  0.46962652  0.57894741     1.51690
Co1212     Co  0.97385480  0.46181540  0.69025451     1.51570
Co1213     Co  0.53550596  0.39486472  0.57798550     1.51470
O1214       O  0.50647788  0.43511697  0.63101301    -1.44380
C1215       C  0.60904531  0.39698543  0.63829948     1.07170
C1216       C  0.99630647  0.03400106  0.64630634     1.07260
C1217       C  0.55241728  0.43024517  0.73877948     1.07200
C1218       C  0.54183000  0.47998297  0.52881429     1.07170
O1219       O  0.71538797  0.13925006  0.72037084    -0.82450
O1220       O  0.72177481  0.24908143  0.54485092    -0.82470
O1221       O  0.72968296  0.27395904  0.64700926    -0.82480
O1222       O  0.66448201  0.16079986  0.57016598    -0.82420
O1223       O  0.77981569  0.27961764  0.59600230    -0.82540
O1224       O  0.67772169  0.13769735  0.63987880    -0.82460
O1225       O  0.71024941  0.19417767  0.50410944    -0.82450
O1226       O  0.69633686  0.20212732  0.69590081    -0.82480
C1227       C  0.69062208  0.17082457  0.72364771     1.07240
C1228       C  0.70657931  0.23330605  0.50985959     1.07130
C1229       C  0.74916108  0.29588493  0.61810652     1.07270
C1230       C  0.65156005  0.14925037  0.60916467     1.07140
O1231       O  0.76876285  0.10864324  0.64370840    -0.82450
O1232       O  0.83046763  0.20862051  0.57507449    -0.82520
O1233       O  0.76879572  0.23544612  0.72724499    -0.82460
O1234       O  0.78170417  0.13717105  0.54351413    -0.82440
O1235       O  0.78489130  0.18800242  0.49998727    -0.82490
O1236       O  0.78841951  0.17334982  0.69974689    -0.82460
O1237       O  0.72807897  0.09482603  0.58578046    -0.82420
O1238       O  0.81620851  0.23100578  0.64777438    -0.82490
Co1239     Co  0.73520597  0.15858131  0.66180284     1.51530
Co1240     Co  0.77714524  0.22811144  0.55728972     1.51690
Co1241     Co  0.75405059  0.21784211  0.66468558     1.51570
Co1242     Co  0.72236821  0.14936688  0.55379368     1.51470
O1243       O  0.74610102  0.18957815  0.60203429    -1.44380
C1244       C  0.75779541  0.08393078  0.61199089     1.07170
C1245       C  0.84237766  0.22021902  0.61467102     1.07260
C1246       C  0.79119819  0.20271706  0.73134303     1.07200
C1247       C  0.79016337  0.14951061  0.50467411     1.07170
O1248       O  0.71529525  0.43401886  0.73148775    -0.82450
O1249       O  0.75613763  0.47575746  0.51904937    -0.82470
O1250       O  0.75857289  0.02792176  0.65602574    -0.82480
O1251       O  0.66556465  0.43897673  0.62753291    -0.82420
O1252       O  0.79128619  0.01705953  0.58704434    -0.82540
O1253       O  0.68108847  0.38483910  0.66671138    -0.82460
O1254       O  0.69481112  0.48148579  0.55235666    -0.82450
O1255       O  0.70835195  0.48773328  0.69224813    -0.82480
C1256       C  0.69780379  0.46837433  0.72705210     1.07240
C1257       C  0.72181195  0.49585764  0.52439086     1.07130
C1258       C  0.77009967  0.04041517  0.61726220     1.07270
C1259       C  0.65322920  0.40796896  0.64758191     1.07140
O1260       O  0.76882751  0.36192011  0.63720565    -0.82450
O1261       O  0.83833913  0.43254891  0.60733824    -0.82520
O1262       O  0.78834961  0.48277061  0.73669540    -0.82460
O1263       O  0.73430919  0.40142853  0.51807446    -0.82440
O1264       O  0.79710715  0.39425667  0.54323798    -0.82490
O1265       O  0.79950991  0.41705780  0.71078148    -0.82460
O1266       O  0.71187753  0.35966291  0.59480574    -0.82420
O1267       O  0.82999906  0.48069915  0.65884410    -0.82490
Co1268     Co  0.74284112  0.40189815  0.67990886     1.51530
Co1269     Co  0.79362963  0.45359156  0.56866124     1.51690
Co1270     Co  0.76762315  0.47414520  0.67433455     1.51570
Co1271     Co  0.70322708  0.42241644  0.57643380     1.51470
O1272       O  0.74968582  0.44134412  0.61944412    -1.44380
C1273       C  0.74269077  0.34121131  0.61569593     1.07170
C1274       C  0.85425381  0.45793336  0.63384750     1.07260
C1275       C  0.80818515  0.44777190  0.73961214     1.07200
C1276       C  0.76864582  0.38094901  0.51742735     1.07170
O1277       O  0.99070522  0.10326516  0.28765139    -0.82450
O1278       O  0.95496815  0.05634382  0.49480558    -0.82470
O1279       O  0.91563930  0.00027363  0.34633939    -0.82480
O1280       O  0.50668903  0.14793921  0.40834780    -0.82420
O1281       O  0.90855426  0.03714509  0.41167167    -0.82540
O1282       O  0.52922238  0.15123457  0.33556380    -0.82460
O1283       O  0.95938500  0.10840199  0.45445755    -0.82450
O1284       O  0.93906589  0.06574721  0.30301512    -0.82480
C1285       C  0.95642591  0.08956640  0.27619729     1.07240
C1286       C  0.95092795  0.09541619  0.49343187     1.07130
C1287       C  0.89235966  0.01885777  0.37685041     1.07270
C1288       C  0.51269988  0.16838510  0.37114147     1.07140
O1289       O  0.57336118  0.08634071  0.34818424    -0.82450
O1290       O  0.95929873  0.46158637  0.40077640    -0.82520
O1291       O  0.52072898  0.02599002  0.27723587    -0.82460
O1292       O  0.53134589  0.04596558  0.48873536    -0.82440
O1293       O  0.51377052  0.98910032  0.45519102    -0.82490
O1294       O  0.55740698  0.07457293  0.31000918    -0.82460
O1295       O  0.57782322  0.08449432  0.42478948    -0.82420
O1296       O  0.00251757  0.46916729  0.34175649    -0.82490
Co1297     Co  0.51245228  0.09961246  0.35321824     1.51530
Co1298     Co  0.96173578  0.01572582  0.43554127     1.51690
Co1299     Co  0.97238338  0.01846073  0.32346304     1.51570
Co1300     Co  0.51739645  0.09124094  0.43842178     1.51470
O1301       O  0.99595545  0.04808404  0.38472791    -1.44380
C1302       C  0.59529380  0.08428368  0.38493214     1.07170
C1303       C  0.98615102  0.44684135  0.37161955     1.07260
C1304       C  0.55206634  0.04865059  0.27641988     1.07200
C1305       C  0.53269507  0.00624086  0.48710533     1.07170
O1306       O  0.50995597  0.26735670  0.25188547    -0.82450
O1307       O  0.52320831  0.26263327  0.45020986    -0.82470
O1308       O  0.57325817  0.36152565  0.34739068    -0.82480
O1309       O  0.97225087  0.22800136  0.39631136    -0.82420
O1310       O  0.57464681  0.31872910  0.40568024    -0.82540
O1311       O  0.99854230  0.22275080  0.32515723    -0.82460
O1312       O  0.45963501  0.26610991  0.47812636    -0.82450
O1313       O  0.56297868  0.29565356  0.28521473    -0.82480
C1314       C  0.54859510  0.27460738  0.25186442     1.07240
C1315       C  0.49633695  0.25010785  0.48105623     1.07130
C1316       C  0.59274684  0.34321468  0.37916151     1.07270
C1317       C  0.99516831  0.20936790  0.36544653     1.07140
O1318       O  0.91159362  0.25253620  0.33810342    -0.82450
O1319       O  0.50967412  0.38269254  0.40041574    -0.82520
O1320       O  0.98923800  0.34015227  0.25139665    -0.82460
O1321       O  0.95823226  0.34766257  0.45101074    -0.82440
O1322       O  0.02032563  0.34426500  0.48124244    -0.82490
O1323       O  0.93274752  0.31348478  0.27937768    -0.82460
O1324       O  0.90726655  0.29279016  0.40130435    -0.82420
O1325       O  0.49138778  0.38832340  0.32648739    -0.82490
Co1326     Co  0.96526557  0.26708438  0.30372451     1.51530
Co1327     Co  0.51443508  0.32143285  0.41824477     1.51690
Co1328     Co  0.52643971  0.34263552  0.30751385     1.51570
Co1329     Co  0.96759000  0.28900621  0.41641564     1.51470
O1330       O  0.99317012  0.30540351  0.35246945    -1.44380
C1331       C  0.88958110  0.27202857  0.36945505     1.07170
C1332       C  0.49457891  0.40329910  0.36688212     1.07260
C1333       C  0.95063310  0.33477084  0.24953903     1.07200
C1334       C  0.98372625  0.36050768  0.48295749     1.07170
O1335       O  0.69329951  0.02548926  0.30090065    -0.82450
O1336       O  0.71910521  0.01585241  0.44760186    -0.82470
O1337       O  0.72485888  0.48250896  0.36081134    -0.82480
O1338       O  0.66092199  0.07366987  0.41595013    -0.82420
O1339       O  0.77693822  0.47274316  0.40471527    -0.82540
O1340       O  0.65777204  0.09604998  0.34389479    -0.82460
O1341       O  0.71475511  0.06704677  0.49086418    -0.82450
O1342       O  0.74642134  0.99365775  0.26753624    -0.82480
C1343       C  0.70853224  0.00727039  0.26397307     1.07240
C1344       C  0.71272011  0.02803933  0.48779082     1.07130
C1345       C  0.74527896  0.45915466  0.38559056     1.07270
C1346       C  0.64028313  0.08308183  0.38072543     1.07140
O1347       O  0.73519301  0.13782314  0.31929578    -0.82450
O1348       O  0.82942173  0.04266011  0.40604628    -0.82520
O1349       O  0.80294260  0.05491119  0.30350610    -0.82460
O1350       O  0.76176752  0.13242066  0.43505871    -0.82440
O1351       O  0.78597274  0.08096497  0.47318633    -0.82490
O1352       O  0.75508221  0.07328116  0.25872398    -0.82460
O1353       O  0.70052989  0.14995053  0.38474922    -0.82420
O1354       O  0.82329384  0.99945019  0.34589452    -0.82490
Co1355     Co  0.71343187  0.08217890  0.31316626     1.51530
Co1356     Co  0.77522288  0.03121683  0.42877541     1.51690
Co1357     Co  0.76219878  0.02029577  0.33100041     1.51570
Co1358     Co  0.71193124  0.10194348  0.42728956     1.51470
O1359       O  0.74677202  0.06527222  0.37673494    -1.44380
C1360       C  0.72519144  0.16198713  0.35288490     1.07170
C1361       C  0.84635394  0.01969875  0.37493662     1.07260
C1362       C  0.79174767  0.06050031  0.26321475     1.07200
C1363       C  0.78351595  0.11971830  0.46682968     1.07170
O1364       O  0.67467445  0.32226500  0.30183398    -0.82450
O1365       O  0.71187893  0.24957964  0.43244660    -0.82470
O1366       O  0.73095679  0.22804404  0.32082926    -0.82480
O1367       O  0.65577218  0.32833176  0.41435895    -0.82420
O1368       O  0.76805587  0.21588647  0.38265466    -0.82540
O1369       O  0.65819980  0.37346637  0.36009295    -0.82460
O1370       O  0.70254378  0.30030897  0.47900960    -0.82450
O1371       O  0.72113880  0.29312597  0.25804684    -0.82480
C1372       C  0.68730903  0.31495688  0.26194662     1.07240
C1373       C  0.70076909  0.26186893  0.47159480     1.07130
C1374       C  0.74109332  0.20430034  0.35310278     1.07270
C1375       C  0.63726792  0.34925145  0.38493554     1.07140
O1376       O  0.75299051  0.39489012  0.35402778    -0.82450
O1377       O  0.82361828  0.28736979  0.40517056    -0.82520
O1378       O  0.79995116  0.32210495  0.30255389    -0.82460
O1379       O  0.76808532  0.36006494  0.43972396    -0.82440
O1380       O  0.77410816  0.30962776  0.48187551    -0.82490
O1381       O  0.75356902  0.35712220  0.26881258    -0.82460
O1382       O  0.70763825  0.40286009  0.40985369    -0.82420
O1383       O  0.82079471  0.25333607  0.33864518    -0.82490
Co1384     Co  0.71426393  0.35754862  0.32757306     1.51530
Co1385     Co  0.76724993  0.27015503  0.42049225     1.51690
Co1386     Co  0.76492077  0.27621397  0.31095483     1.51570
Co1387     Co  0.71148425  0.34343330  0.42830190     1.51470
O1388       O  0.73776728  0.30925838  0.37029692    -1.44380
C1389       C  0.73599307  0.41718066  0.38483502     1.07170
C1390       C  0.84257347  0.27064050  0.37056862     1.07260
C1391       C  0.78776117  0.33722956  0.26601937     1.07200
C1392       C  0.77601482  0.34853462  0.47890785     1.07170
O1393       O  0.59623849  0.51184269  0.22172026    -0.82450
O1394       O  0.64326112  0.62695102  0.03964000    -0.82470
O1395       O  0.62113002  0.64079547  0.14440606    -0.82480
O1396       O  0.56287519  0.57686713  0.07674896    -0.82420
O1397       O  0.68016139  0.64783123  0.10821935    -0.82540
O1398       O  0.56032668  0.54703694  0.14562718    -0.82460
O1399       O  0.61513849  0.57744861  0.00209537    -0.82450
O1400       O  0.59302680  0.58042754  0.21494634    -0.82480
C1401       C  0.58240325  0.54684921  0.23664690     1.07240
C1402       C  0.62547184  0.61491610  0.00459628     1.07130
C1403       C  0.64615933  0.66368775  0.12395937     1.07270
C1404       C  0.54442855  0.57036467  0.11430791     1.07140
O1405       O  0.61477003  0.97161686  0.13883892    -0.82450
O1406       O  0.72375137  0.56424049  0.10463386    -0.82520
O1407       O  0.67659381  0.55932623  0.22304676    -0.82460
O1408       O  0.65056720  0.50055655  0.03820584    -0.82440
O1409       O  0.69155567  0.55062433  0.01942409    -0.82490
O1410       O  0.67595947  0.50237444  0.18513018    -0.82460
O1411       O  0.57423500  0.98699057  0.08133961    -0.82420
O1412       O  0.71048541  0.60722712  0.16381649    -0.82490
Co1413     Co  0.62035030  0.52740157  0.16369761     1.51530
Co1414     Co  0.68278135  0.59324332  0.07168571     1.51690
Co1415     Co  0.64837131  0.59469359  0.17819471     1.51570
Co1416     Co  0.60543207  0.53832219  0.05753970     1.51470
O1417       O  0.64295661  0.55918148  0.11240568    -1.44380
C1418       C  0.58737914  0.96075869  0.11092472     1.07170
C1419       C  0.73639809  0.58793335  0.13544369     1.07260
C1420       C  0.68881123  0.52260590  0.21997578     1.07200
C1421       C  0.67886982  0.51447545  0.01298315     1.07170
O1422       O  0.66681868  0.73251031  0.11950842    -0.82450
O1423       O  0.63869661  0.84276920  0.03062887    -0.82470
O1424       O  0.59747264  0.76628273  0.04235905    -0.82480
O1425       O  0.70398588  0.87064762  0.12044776    -0.82420
O1426       O  0.56233684  0.81672818  0.00846827    -0.82540
O1427       O  0.70969360  0.80424593  0.13988031    -0.82460
O1428       O  0.64437933  0.90116961  0.06855256    -0.82450
O1429       O  0.60029280  0.72273089  0.12326690    -0.82480
C1430       C  0.63732456  0.70810295  0.12020750     1.07240
C1431       C  0.64172686  0.88103143  0.02976385     1.07130
C1432       C  0.57755938  0.77965124  0.00682551     1.07270
C1433       C  0.72468434  0.83832215  0.12542557     1.07140
O1434       O  0.63717479  0.81894827  0.20567473    -0.82450
O1435       O  0.53500373  0.82551258  0.09936658    -0.82520
O1436       O  0.55869152  0.79216884  0.17381118    -0.82460
O1437       O  0.58928365  0.89702260  0.14951091    -0.82440
O1438       O  0.57016181  0.89404255  0.07566324    -0.82490
O1439       O  0.60796938  0.75325585  0.20167037    -0.82460
O1440       O  0.66894403  0.87180992  0.20635469    -0.82420
O1441       O  0.52887180  0.75817264  0.09391596    -0.82490
Co1442     Co  0.65572837  0.77875295  0.16390149     1.51530
Co1443     Co  0.58932654  0.83150327  0.06725380     1.51690
Co1444     Co  0.58046155  0.78109559  0.10924763     1.51570
Co1445     Co  0.64798825  0.88083063  0.13688643     1.51470
O1446       O  0.62714857  0.81958469  0.12178556    -1.44380
C1447       C  0.66483250  0.83659129  0.22331330     1.07170
C1448       C  0.51301103  0.79426596  0.09290857     1.07260
C1449       C  0.57231763  0.77133232  0.20693930     1.07200
C1450       C  0.57580824  0.91588841  0.11357267     1.07170
O1451       O  0.97518807  0.55551582  0.10380874    -0.82450
O1452       O  0.85475952  0.55739911  0.22464805    -0.82470
O1453       O  0.95119072  0.58224585  0.19363478    -0.82480
O1454       O  0.87734330  0.99468456  0.16059177    -0.82420
O1455       O  0.90499758  0.62084871  0.23234052    -0.82540
O1456       O  0.92414373  0.99066469  0.10581341    -0.82460
O1457       O  0.80521107  0.53024044  0.18594893    -0.82450
O1458       O  0.98986946  0.62048887  0.12353904    -0.82480
C1459       C  0.00123942  0.58318098  0.11515546     1.07240
C1460       C  0.81859444  0.54562449  0.22427261     1.07130
C1461       C  0.93749497  0.59853444  0.23174890     1.07270
C1462       C  0.90375206  0.97424256  0.13708107     1.07140
O1463       O  0.86197883  0.53154288  0.04913767    -0.82450
O1464       O  0.85448397  0.66237051  0.16726128    -0.82520
O1465       O  0.91603779  0.64008215  0.07889468    -0.82460
O1466       O  0.80257957  0.57377334  0.10302791    -0.82440
O1467       O  0.79679736  0.60775967  0.17164376    -0.82490
O1468       O  0.91689914  0.58674535  0.03301538    -0.82460
O1469       O  0.82384050  0.48746680  0.08405221    -0.82420
O1470       O  0.92252692  0.66418255  0.16298719    -0.82490
Co1471     Co  0.91596586  0.54563967  0.08080570     1.51530
Co1472     Co  0.85472732  0.61015542  0.19550162     1.51690
Co1473     Co  0.93379732  0.60806220  0.13401582     1.51570
Co1474     Co  0.84269312  0.53373348  0.12770266     1.51470
O1475       O  0.88137659  0.58040039  0.13717716    -1.44380
C1476       C  0.84356110  0.49729529  0.04649190     1.07170
C1477       C  0.88678204  0.68155226  0.16051880     1.07260
C1478       C  0.91111425  0.62426773  0.03905854     1.07200
C1479       C  0.78081124  0.59299740  0.13492615     1.07170
O1480       O  0.94645956  0.77353142  0.08701751    -0.82450
O1481       O  0.84154638  0.82193759  0.21218969    -0.82470
O1482       O  0.93654501  0.83041483  0.16943094    -0.82480
O1483       O  0.85618357  0.74531038  0.16883212    -0.82420
O1484       O  0.89756793  0.87108816  0.21067852    -0.82540
O1485       O  0.88672866  0.72830596  0.10033457    -0.82460
O1486       O  0.78520062  0.79828011  0.19183435    -0.82450
O1487       O  0.95803692  0.83831017  0.08159310    -0.82480
C1488       C  0.97080298  0.80197312  0.08593620     1.07240
C1489       C  0.80476978  0.81856631  0.22174522     1.07130
C1490       C  0.92807216  0.84659700  0.20832881     1.07270
C1491       C  0.88000849  0.72203968  0.14397761     1.07140
O1492       O  0.83638019  0.77862901  0.03350091    -0.82450
O1493       O  0.86550946  0.91498177  0.13450067    -0.82520
O1494       O  0.88841035  0.88113825  0.05737368    -0.82460
O1495       O  0.78479478  0.81173985  0.09464204    -0.82440
O1496       O  0.79011308  0.86592756  0.14185328    -0.82490
O1497       O  0.90553770  0.82500190  0.01585783    -0.82460
O1498       O  0.81204496  0.73437708  0.08093293    -0.82420
O1499       O  0.93462018  0.90803728  0.13048471    -0.82490
Co1500     Co  0.89163088  0.77934304  0.06200309     1.51530
Co1501     Co  0.84965733  0.86413019  0.16787355     1.51690
Co1502     Co  0.90883732  0.85746198  0.11682846     1.51570
Co1503     Co  0.81879850  0.77844181  0.13277293     1.51470
O1504       O  0.86816709  0.81564667  0.11698335    -1.44380
C1505       C  0.81724690  0.74588220  0.03903465     1.07170
C1506       C  0.90188880  0.93058684  0.13628823     1.07260
C1507       C  0.90141889  0.86422448  0.01902246     1.07200
C1508       C  0.76863153  0.84132580  0.11665717     1.07170
O1509       O  0.63758540  0.67986949  0.96795549    -0.82450
O1510       O  0.62280472  0.66814387  0.76599336    -0.82470
O1511       O  0.57531331  0.62317237  0.90129621    -0.82480
O1512       O  0.70249309  0.70389265  0.83264983    -0.82420
O1513       O  0.57555854  0.62105867  0.82386035    -0.82540
O1514       O  0.70090865  0.69545683  0.90941808    -0.82460
O1515       O  0.67832671  0.69707348  0.79670456    -0.82450
O1516       O  0.58978156  0.63942469  0.93888012    -0.82480
C1517       C  0.61792763  0.64597262  0.96836077     1.07240
C1518       C  0.66208213  0.67618202  0.76438971     1.07130
C1519       C  0.57897909  0.60276370  0.86237408     1.07270
C1520       C  0.71982661  0.69003478  0.87045724     1.07140
O1521       O  0.66683378  0.77916010  0.88698196    -0.82450
O1522       O  0.51642009  0.69533558  0.85235434    -0.82520
O1523       O  0.56726865  0.71582259  0.96526977    -0.82460
O1524       O  0.61557708  0.74283943  0.76633101    -0.82440
O1525       O  0.56436041  0.74022287  0.80914748    -0.82490
O1526       O  0.59840155  0.76239801  0.93032458    -0.82460
O1527       O  0.67391894  0.78062072  0.80928429    -0.82420
O1528       O  0.51283208  0.67519211  0.92588966    -0.82490
Co1529     Co  0.64800529  0.72604557  0.92003761     1.51530
Co1530     Co  0.57320463  0.68130114  0.81595051     1.51690
Co1531     Co  0.56558726  0.68494867  0.90219010     1.51570
Co1532     Co  0.64440645  0.73681001  0.83194108     1.51470
O1533       O  0.61745926  0.69329806  0.86712350    -1.44380
C1534       C  0.67530042  0.79837257  0.84890717     1.07170
C1535       C  0.49625786  0.69294428  0.89194119     1.07260
C1536       C  0.57750721  0.75283172  0.96469749     1.07200
C1537       C  0.57645975  0.74257846  0.76846313     1.07490
O1538       O  0.66960986  0.00469394  0.93354307    -0.82450
O1539       O  0.68893134  0.97543249  0.80576650    -0.82470
O1540       O  0.72674431  0.95118289  0.88408923    -0.82480
O1541       O  0.60207283  0.54369891  0.82222049    -0.82420
O1542       O  0.73128158  0.90800294  0.82712173    -0.82540
O1543       O  0.59673301  0.53826446  0.89910201    -0.82460
O1544       O  0.63793953  0.99568158  0.77042682    -0.82450
O1545       O  0.69619867  0.95463734  0.97034123    -0.82480
C1546       C  0.68757187  0.99227146  0.96921809     1.07240
C1547       C  0.67563122  0.98637459  0.76794727     1.07130
C1548       C  0.74888830  0.93030093  0.85659470     1.07270
C1549       C  0.59237883  0.55949289  0.86138671     1.07140
O1550       O  0.55750184  0.96221134  0.92088546    -0.82450
O1551       O  0.65783071  0.86259687  0.82024122    -0.82520
O1552       O  0.65049123  0.88322687  0.94886728    -0.82460
O1553       O  0.57539660  0.96531591  0.80689294    -0.82440
O1554       O  0.61900890  0.92036644  0.77201979    -0.82490
O1555       O  0.62226995  0.93907110  0.98153270    -0.82460
O1556       O  0.55809922  0.98091539  0.84647625    -0.82420
O1557       O  0.69923264  0.86117232  0.88094274    -0.82490
Co1558     Co  0.61458485  0.98084455  0.92730205     1.51530
Co1559     Co  0.67141215  0.91901193  0.81097341     1.51690
Co1560     Co  0.68848014  0.91617949  0.91519375     1.51570
Co1561     Co  0.62114703  0.99217079  0.84077118     1.51470
O1562       O  0.64054576  0.93980947  0.87300933    -1.44380
C1563       C  0.53784595  0.97129459  0.88412548     1.07170
C1564       C  0.67796565  0.84278563  0.85021752     1.07260
C1565       C  0.63616904  0.90175976  0.98454522     1.07200
C1566       C  0.58326277  0.93800097  0.77504980     1.07170
O1567       O  0.88644489  0.68491572  0.00391592    -0.82450
O1568       O  0.88615024  0.64120334  0.78124694    -0.82470
O1569       O  0.83994083  0.59457547  0.89470543    -0.82480
O1570       O  0.93679639  0.73714586  0.87363090    -0.82420
O1571       O  0.89882438  0.61491076  0.86857406    -0.82540
O1572       O  0.93693749  0.70449293  0.93834919    -0.82460
O1573       O  0.93104953  0.67865032  0.81505501    -0.82450
O1574       O  0.88202818  0.62762874  0.96519649    -0.82480
C1575       C  0.89424454  0.64709956  0.00040129     1.07240
C1576       C  0.92324594  0.65427535  0.78225066     1.07130
C1577       C  0.87786160  0.58636895  0.88336564     1.07270
C1578       C  0.95482764  0.71224669  0.90075105     1.07140
O1579       O  0.88126068  0.77491033  0.91957497    -0.82450
O1580       O  0.78757381  0.66309203  0.83694232    -0.82520
O1581       O  0.81152692  0.68177045  0.99531158    -0.82460
O1582       O  0.85195850  0.71560918  0.77778697    -0.82440
O1583       O  0.80773643  0.67145867  0.80318831    -0.82490
O1584       O  0.82103057  0.73690034  0.95923833    -0.82460
O1585       O  0.84676631  0.76365989  0.85633948    -0.82420
O1586       O  0.77333263  0.65877413  0.91319547    -0.82490
Co1587     Co  0.87957632  0.72190938  0.94920305     1.51530
Co1588     Co  0.85009114  0.64192226  0.84279906     1.51690
Co1589     Co  0.82884155  0.64453481  0.93725828     1.51570
Co1590     Co  0.88799728  0.72047479  0.83633853     1.51470
O1591       O  0.85994628  0.68650045  0.89119056    -1.44380
C1592       C  0.85397836  0.78626294  0.89136366     1.07170
C1593       C  0.76187450  0.66864366  0.87259966     1.07260
C1594       C  0.81038289  0.72072639  0.99607612     1.07200
C1595       C  0.81865912  0.69688860  0.77199946     1.07170
O1596       O  0.91957449  0.92866661  0.98695577    -0.82450
O1597       O  0.90450671  0.88418326  0.79251656    -0.82470
O1598       O  0.83369743  0.85389847  0.92180684    -0.82480
O1599       O  0.97152841  0.99237055  0.85486128    -0.82420
O1600       O  0.86367457  0.84157301  0.85055636    -0.82540
O1601       O  0.97358087  0.95628941  0.91888948    -0.82460
O1602       O  0.95269091  0.92722198  0.80391083    -0.82450
O1603       O  0.90645040  0.88056174  0.93756704    -0.82480
C1604       C  0.91318661  0.89098363  0.97911449     1.07240
C1605       C  0.93833334  0.89871281  0.77966639     1.07130
C1606       C  0.84636462  0.82903327  0.88734034     1.07270
C1607       C  0.99204612  0.97211064  0.88492647     1.07140
O1608       O  0.91983695  0.53135200  0.91038343    -0.82450
O1609       O  0.81735691  0.90459636  0.84103364    -0.82520
O1610       O  0.84220618  0.93643552  0.98843605    -0.82460
O1611       O  0.87080016  0.96885708  0.77817145    -0.82440
O1612       O  0.84136764  0.91250456  0.80213266    -0.82490
O1613       O  0.86370355  0.99599709  0.96687796    -0.82460
O1614       O  0.88780362  0.52597418  0.84216001    -0.82420
O1615       O  0.80430908  0.93861457  0.90579845    -0.82490
Co1616     Co  0.91826586  0.97635031  0.94133118     1.51530
Co1617     Co  0.87884291  0.89566750  0.85670589     1.51690
Co1618     Co  0.85610355  0.91117285  0.91954612     1.51570
Co1619     Co  0.91830789  0.97647094  0.82368511     1.51470
O1620       O  0.88983073  0.95230205  0.88272867    -1.44380
C1621       C  0.89479822  0.54523883  0.87973894     1.07170
C1622       C  0.79157811  0.92478958  0.86790424     1.07260
C1623       C  0.84706302  0.97503668  0.99842511     1.07200
C1624       C  0.84270318  0.94271516  0.77394496     1.07170
O1625       O  0.51026545  0.72220933  0.73536869    -0.82450
O1626       O  0.51908318  0.68344745  0.52062409    -0.82470
O1627       O  0.59026089  0.63110007  0.65310600    -0.82480
O1628       O  0.98998616  0.75394008  0.59832577    -0.82420
O1629       O  0.58235172  0.66110122  0.58491665    -0.82540
O1630       O  0.98076431  0.76447766  0.67333461    -0.82460
O1631       O  0.49007246  0.73529254  0.56022514    -0.82450
O1632       O  0.56722438  0.69844985  0.70246763    -0.82480
C1633       C  0.55003357  0.72292868  0.73146845     1.07240
C1634       C  0.50493507  0.72119099  0.52149960     1.07130
C1635       C  0.60579587  0.64741759  0.61670321     1.07270
C1636       C  0.99692095  0.77524640  0.63575911     1.07140
O1637       O  0.90575848  0.71253576  0.65693593    -0.82450
O1638       O  0.53702956  0.58695313  0.61171313    -0.82520
O1639       O  0.99411090  0.65306511  0.74784099    -0.82460
O1640       O  0.94692405  0.66328159  0.53905420    -0.82440
O1641       O  0.97415598  0.61102494  0.56935157    -0.82490
O1642       O  0.94315137  0.65493816  0.70262482    -0.82460
O1643       O  0.90862879  0.72835690  0.58240407    -0.82420
O1644       O  0.50952665  0.59644855  0.68166424    -0.82490
Co1645     Co  0.96432929  0.70883461  0.68592853     1.51530
Co1646     Co  0.52661503  0.63953969  0.57624848     1.51690
Co1647     Co  0.53755170  0.64719834  0.69137596     1.51570
Co1648     Co  0.95738931  0.69994165  0.60126405     1.51470
O1649       O  0.00489257  0.67532927  0.63542726    -1.44380
C1650       C  0.88743388  0.72254299  0.61901518     1.07170
C1651       C  0.51432353  0.57470612  0.64537304     1.07260
C1652       C  0.95501600  0.64933293  0.74290979     1.07200
C1653       C  0.95370756  0.62415075  0.53667327     1.07170
O1654       O  0.99267809  0.87705767  0.72570147    -0.82450
O1655       O  0.97305118  0.93058545  0.51802491    -0.82470
O1656       O  0.91956420  0.98222855  0.66206602    -0.82480
O1657       O  0.52360763  0.83626064  0.60188604    -0.82420
O1658       O  0.91976166  0.94759263  0.59581448    -0.82540
O1659       O  0.53310082  0.82546681  0.67695666    -0.82460
O1660       O  0.97918547  0.88108496  0.56166054    -0.82450
O1661       O  0.94185816  0.91219602  0.70035049    -0.82480
C1662       C  0.95622525  0.89113491  0.73238559     1.07240
C1663       C  0.97295988  0.89189557  0.52148832     1.07130
C1664       C  0.89993412  0.96247284  0.63113009     1.07270
C1665       C  0.52119149  0.81285244  0.63745164     1.07140
O1666       O  0.58333382  0.88870058  0.67158746    -0.82450
O1667       O  0.96950190  0.52263374  0.61681166    -0.82520
O1668       O  0.51867673  0.95142103  0.73815657    -0.82460
O1669       O  0.54678638  0.94045620  0.52665823    -0.82440
O1670       O  0.52734702  0.99431849  0.56582199    -0.82490
O1671       O  0.56092056  0.90280446  0.70692716    -0.82460
O1672       O  0.59481145  0.90151324  0.59726327    -0.82420
O1673       O  0.00393630  0.51197816  0.68083344    -0.82490
Co1674     Co  0.52042587  0.88024980  0.66106878     1.51530
Co1675     Co  0.97433934  0.96962646  0.57894712     1.51690
Co1676     Co  0.97385544  0.96181543  0.69025410     1.51570
Co1677     Co  0.53550673  0.89486503  0.57798507     1.51470
O1678       O  0.50647864  0.93511725  0.63101261    -1.44380
C1679       C  0.60904626  0.89698562  0.63829872     1.07170
C1680       C  0.99630673  0.53400085  0.64630656     1.07260
C1681       C  0.55241814  0.93024558  0.73877895     1.07200
C1682       C  0.54183063  0.97998357  0.52881405     1.07170
O1683       O  0.71539018  0.63924930  0.72037108    -0.82450
O1684       O  0.72177792  0.74908214  0.54485133    -0.82470
O1685       O  0.72968525  0.77395899  0.64701045    -0.82480
O1686       O  0.66448401  0.66080006  0.57016614    -0.82420
O1687       O  0.77981824  0.77961744  0.59600378    -0.82540
O1688       O  0.67772350  0.63769762  0.63987913    -0.82460
O1689       O  0.71025193  0.69417827  0.50411025    -0.82450
O1690       O  0.69633918  0.70212688  0.69590184    -0.82480
C1691       C  0.69062437  0.67082385  0.72364834     1.07240
C1692       C  0.70658221  0.73330668  0.50986017     1.07130
C1693       C  0.74916330  0.79588474  0.61810744     1.07270
C1694       C  0.65156195  0.64925025  0.60916467     1.07140
O1695       O  0.76876478  0.60864308  0.64370843    -0.82450
O1696       O  0.83046991  0.70861978  0.57507604    -0.82520
O1697       O  0.76879818  0.73544547  0.72724615    -0.82460
O1698       O  0.78170649  0.63717170  0.54351575    -0.82440
O1699       O  0.78489381  0.68800249  0.49998830    -0.82490
O1700       O  0.78842175  0.67334927  0.69974745    -0.82460
O1701       O  0.72808046  0.59482638  0.58578082    -0.82420
O1702       O  0.81621077  0.73100565  0.64777562    -0.82490
Co1703     Co  0.73520805  0.65858112  0.66180333     1.51530
Co1704     Co  0.77714790  0.72811145  0.55729081     1.51690
Co1705     Co  0.75405284  0.71784191  0.66468666     1.51570
Co1706     Co  0.72237034  0.64936732  0.55379439     1.51470
O1707       O  0.74610292  0.68957850  0.60203516    -1.44380
C1708       C  0.75779676  0.58393072  0.61199114     1.07170
C1709       C  0.84237994  0.72021855  0.61467243     1.07260
C1710       C  0.79120070  0.70271638  0.73134375     1.07200
C1711       C  0.79016528  0.64951067  0.50467539     1.07170
O1712       O  0.71529586  0.93401876  0.73148691    -0.82450
O1713       O  0.75613923  0.97575703  0.51904806    -0.82470
O1714       O  0.75857252  0.52792172  0.65602589    -0.82480
O1715       O  0.66556581  0.93897633  0.62753114    -0.82420
O1716       O  0.79128646  0.51705915  0.58704490    -0.82540
O1717       O  0.68108950  0.88483906  0.66671033    -0.82460
O1718       O  0.69481236  0.98148480  0.55235449    -0.82450
O1719       O  0.70835253  0.98773305  0.69224715    -0.82480
C1720       C  0.69780437  0.96837420  0.72705118     1.07240
C1721       C  0.72181329  0.99585680  0.52438889     1.07130
C1722       C  0.77010005  0.54041501  0.61726257     1.07270
C1723       C  0.65323029  0.90796886  0.64758066     1.07140
O1724       O  0.76882906  0.86192037  0.63720516    -0.82450
O1725       O  0.83833971  0.93254918  0.60733822    -0.82520
O1726       O  0.78835003  0.98277051  0.73669496    -0.82460
O1727       O  0.73431130  0.90142753  0.51807364    -0.82440
O1728       O  0.79710929  0.89425695  0.54323749    -0.82490
O1729       O  0.79951069  0.91705784  0.71078094    -0.82460
O1730       O  0.71187925  0.85966225  0.59480528    -0.82420
O1731       O  0.82999971  0.98069957  0.65884373    -0.82490
Co1732     Co  0.74284208  0.90189820  0.67990809     1.51530
Co1733     Co  0.79363069  0.95359180  0.56866068     1.51690
Co1734     Co  0.76762384  0.97414518  0.67433391     1.51570
Co1735     Co  0.70322861  0.92241567  0.57643251     1.51470
O1736       O  0.74968678  0.94134408  0.61944324    -1.44380
C1737       C  0.74269254  0.84121108  0.61569586     1.07170
C1738       C  0.85425442  0.95793364  0.63384728     1.07260
C1739       C  0.80818569  0.94777187  0.73961174     1.07200
C1740       C  0.76864833  0.88094870  0.51742675     1.07170
O1741       O  0.99070466  0.60326452  0.28765186    -0.82450
O1742       O  0.95496738  0.55634393  0.49480628    -0.82470
O1743       O  0.91563704  0.50027414  0.34634015    -0.82480
O1744       O  0.50668922  0.64793877  0.40834807    -0.82420
O1745       O  0.90855274  0.53714552  0.41167259    -0.82540
O1746       O  0.52922268  0.65123322  0.33556399    -0.82460
O1747       O  0.95938426  0.60840181  0.45445787    -0.82450
O1748       O  0.93906441  0.56574789  0.30301610    -0.82480
C1749       C  0.95642497  0.58956650  0.27619798     1.07240
C1750       C  0.95092764  0.59541632  0.49343245     1.07130
C1751       C  0.89235774  0.51885805  0.37685165     1.07270
C1752       C  0.51270076  0.66838432  0.37114163     1.07140
O1753       O  0.57336070  0.58633926  0.34818503    -0.82450
O1754       O  0.95930110  0.96158617  0.40077565    -0.82520
O1755       O  0.52072729  0.52598924  0.27723640    -0.82460
O1756       O  0.53134491  0.54596502  0.48873578    -0.82440
O1757       O  0.51376865  0.48909982  0.45519191    -0.82490
O1758       O  0.55740638  0.57457102  0.31001026    -0.82460
O1759       O  0.57782236  0.58449380  0.42479036    -0.82420
O1760       O  0.00252034  0.96916757  0.34175628    -0.82490
Co1761     Co  0.51245184  0.59961150  0.35321874     1.51530
Co1762     Co  0.96173419  0.51572583  0.43554201     1.51690
Co1763     Co  0.97238120  0.51846078  0.32346357     1.51570
Co1764     Co  0.51739566  0.59124051  0.43842230     1.51470
O1765       O  0.99595411  0.54808351  0.38472838    -1.44380
C1766       C  0.59529314  0.58428303  0.38493316     1.07170
C1767       C  0.98615373  0.94684135  0.37161903     1.07260
C1768       C  0.55206514  0.54864917  0.27642062     1.07200
C1769       C  0.53269382  0.50624029  0.48710578     1.07170
O1770       O  0.50995984  0.76735621  0.25188549    -0.82450
O1771       O  0.52321093  0.76263361  0.45021016    -0.82470
O1772       O  0.57326166  0.86152541  0.34739063    -0.82480
O1773       O  0.97225354  0.72800129  0.39631100    -0.82420
O1774       O  0.57464987  0.81872958  0.40568093    -0.82540
O1775       O  0.99854558  0.72275040  0.32515710    -0.82460
O1776       O  0.45963746  0.76611028  0.47812612    -0.82450
O1777       O  0.56298251  0.79565306  0.28521480    -0.82480
C1778       C  0.54859899  0.77460683  0.25186447     1.07240
C1779       C  0.49633934  0.75010814  0.48105630     1.07130
C1780       C  0.59275016  0.84321463  0.37916171     1.07270
C1781       C  0.99517069  0.70936739  0.36544625     1.07140
O1782       O  0.91159674  0.75253598  0.33810230    -0.82450
O1783       O  0.50967696  0.88269283  0.40041538    -0.82520
O1784       O  0.98924198  0.84015182  0.25139593    -0.82460
O1785       O  0.95823461  0.84766254  0.45100985    -0.82440
O1786       O  0.02032767  0.84426519  0.48124235    -0.82490
O1787       O  0.93275135  0.81348446  0.27937670    -0.82460
O1788       O  0.90726938  0.79278982  0.40130335    -0.82420
O1789       O  0.49139175  0.88832343  0.32648658    -0.82490
Co1790     Co  0.96526915  0.76708405  0.30372394     1.51530
Co1791     Co  0.51443793  0.82143318  0.41824476     1.51690
Co1792     Co  0.52644350  0.84263522  0.30751355     1.51570
Co1793     Co  0.96759273  0.78900612  0.41641505     1.51470
O1794       O  0.99317342  0.80540327  0.35246902    -1.44380
C1795       C  0.88958408  0.77202801  0.36945413     1.07170
C1796       C  0.49458219  0.90329926  0.36688137     1.07260
C1797       C  0.95063707  0.83477051  0.24953814     1.07200
C1798       C  0.98372821  0.86050776  0.48295695     1.07170
O1799       O  0.69329810  0.52548970  0.30090303    -0.82450
O1800       O  0.71910309  0.51585348  0.44760405    -0.82470
O1801       O  0.72486179  0.98250776  0.36080840    -0.82480
O1802       O  0.66092115  0.57367093  0.41595215    -0.82420
O1803       O  0.77694084  0.97274314  0.40471318    -0.82540
O1804       O  0.65777145  0.59605091  0.34389680    -0.82460
O1805       O  0.71475413  0.56704773  0.49086647    -0.82450
O1806       O  0.74641962  0.49365736  0.26753878    -0.82480
C1807       C  0.70853064  0.50727044  0.26397556     1.07240
C1808       C  0.71271857  0.52804035  0.48779310     1.07130
C1809       C  0.74528198  0.95915404  0.38558823     1.07270
C1810       C  0.64028248  0.58308224  0.38072708     1.07140
O1811       O  0.73519298  0.63782292  0.31929753    -0.82450
O1812       O  0.82942019  0.54265925  0.40604932    -0.82520
O1813       O  0.80294116  0.55491057  0.30350804    -0.82460
O1814       O  0.76176692  0.63242119  0.43506127    -0.82440
O1815       O  0.78597194  0.58096500  0.47318843    -0.82490
O1816       O  0.75508091  0.57328100  0.25872598    -0.82460
O1817       O  0.70053013  0.64995130  0.38475094    -0.82420
O1818       O  0.82329153  0.49945041  0.34589668    -0.82490
Co1819     Co  0.71343110  0.58217912  0.31316850     1.51530
Co1820     Co  0.77522117  0.53121678  0.42877794     1.51690
Co1821     Co  0.76219644  0.52029623  0.33100267     1.51570
Co1822     Co  0.71193055  0.60194435  0.42729177     1.51470
O1823       O  0.74677127  0.56527272  0.37673743    -1.44380
C1824       C  0.72519206  0.66198719  0.35288655     1.07170
C1825       C  0.84635198  0.51969857  0.37493883     1.07260
C1826       C  0.79174635  0.56050018  0.26321675     1.07200
C1827       C  0.78351588  0.61971834  0.46683158     1.07170
O1828       O  0.67467757  0.82226422  0.30183333    -0.82450
O1829       O  0.71188172  0.74957978  0.43244706    -0.82470
O1830       O  0.73095893  0.72804340  0.32082984    -0.82480
O1831       O  0.65577565  0.82833148  0.41435874    -0.82420
O1832       O  0.76805813  0.71588582  0.38265506    -0.82540
O1833       O  0.65820323  0.87346569  0.36009235    -0.82460
O1834       O  0.70254708  0.80030941  0.47900971    -0.82450
O1835       O  0.72114175  0.79312458  0.25804644    -0.82480
C1836       C  0.68731216  0.81495580  0.26194600     1.07240
C1837       C  0.70077208  0.76186937  0.47159521     1.07130
C1838       C  0.74109496  0.70429997  0.35310376     1.07270
C1839       C  0.63727135  0.84925106  0.38493532     1.07140
O1840       O  0.75299402  0.89488911  0.35402678    -0.82450
O1841       O  0.82362138  0.78736876  0.40517013    -0.82520
O1842       O  0.79995442  0.82210311  0.30255260    -0.82460
O1843       O  0.76808893  0.86006464  0.43972330    -0.82440
O1844       O  0.77411151  0.80962756  0.48187509    -0.82490
O1845       O  0.75357223  0.85712084  0.26881177    -0.82460
O1846       O  0.70764179  0.90285967  0.40985266    -0.82420
O1847       O  0.82079750  0.75333467  0.33864503    -0.82490
Co1848     Co  0.71426724  0.85754771  0.32757230     1.51530
Co1849     Co  0.76725291  0.77015453  0.42049222     1.51690
Co1850     Co  0.76492360  0.77621267  0.31095455     1.51570
Co1851     Co  0.71148779  0.84343306  0.42830135     1.51470
O1852       O  0.73777056  0.80925772  0.37029650    -1.44380
C1853       C  0.73599649  0.91718000  0.38483364     1.07170
C1854       C  0.84257642  0.77063944  0.37056810     1.07260
C1855       C  0.78776417  0.83722784  0.26601824     1.07200
C1856       C  0.77601815  0.84853441  0.47890732     1.07170
loop_ 
_geom_bond_atom_site_label_1 
_geom_bond_atom_site_label_2 
_geom_bond_distance 
_geom_bond_site_symmetry_2 
_ccdc_geom_bond_type 
O1            C9   1.268       .  A
O1          Co21   1.898       .  S
O2           C10   1.218       .  A
O2          Co22   1.906       .  S
O3           C11   1.260       .  A
O3          Co23   1.985       .  S
O4           C12   1.239       .  A
O4          Co24   1.889       .  S
O5           C11   1.264       .  A
O5          Co22   2.031       .  S
O6           C12   1.283       .  A
O6          Co21   2.089       .  S
O7           C10   1.274       .  A
O7          Co24   2.074       .  S
O8            C9   1.319       .  A
O8          Co23   2.122       .  S
C9          C376   1.481       .  S
C10         C125   1.475   1_554  S
C11          C38   1.468       .  S
C12         C995   1.437       .  S
O13          C26   1.248       .  A
O13        Co485   1.944       .  S
O14          C27   1.234       .  A
O14         Co22   1.870       .  S
O15          C28   1.244       .  A
O15         Co23   1.950       .  S
O16          C29   1.254       .  A
O16         Co24   1.934       .  S
O17          C29   1.267       .  A
O17         Co22   2.015       .  S
O18          C28   1.257       .  A
O18         Co21   2.048       .  S
O19          C26   1.277       .  A
O19        Co488   2.097       .  S
O20          C27   1.287       .  A
O20         Co23   2.090       .  S
Co21        O477   1.944   1_545  S
Co21         O25   1.952       .  S
Co22         O25   2.079       .  S
Co23         O25   2.184       .  S
Co24        O483   2.097   1_545  S
Co24         O25   2.099       .  S
C26          C58   1.520       .  S
C27          C87   1.445       .  S
C28         C415   1.498       .  S
C29         C618   1.440   1_544  S
O30          C38   1.258       .  A
O30         Co50   1.957       .  S
O31          C39   1.251       .  A
O31         Co51   1.936       .  S
O32          C40   1.280       .  A
O32         Co52   2.011       .  S
O33          C41   1.237       .  A
O33         Co53   1.872       .  S
O34          C40   1.284       .  A
O34         Co51   1.950       .  S
O35          C41   1.296       .  A
O35         Co50   2.064       .  S
O36          C39   1.273       .  A
O36         Co53   2.068       .  S
O37          C38   1.269       .  A
O37         Co52   2.031       .  S
C39         C173   1.475   1_554  S
C40         C144   1.462   1_554  S
C41         C116   1.440       .  S
O42          C55   1.186       .  A
O42         Co50   1.822       .  S
O43          C56   1.269       .  A
O43         Co51   1.978       .  S
O44          C57   1.248       .  A
O44         Co52   1.973       .  S
O45          C58   1.277       .  A
O45         Co53   1.969       .  S
O46          C58   1.293       .  A
O46         Co51   2.110       .  S
O47          C57   1.276       .  A
O47         Co50   2.069       .  S
O48          C55   1.263       .  A
O48         Co53   2.118       .  S
O49          C56   1.264       .  A
O49         Co52   1.895       .  S
Co50         O54   2.016       .  S
Co51         O54   2.020       .  S
Co52         O54   2.018       .  S
Co53         O54   2.157       .  S
C55         C444   1.499       .  S
C56        C1024   1.391   1_455  S
C57         C386   1.476       .  S
O59          C67   1.289       .  A
O59         Co79   2.057       .  S
O60          C68   1.238       .  A
O60         Co80   1.922       .  S
O61          C69   1.260       .  A
O61         Co81   1.987       .  S
O62          C70   1.238       .  A
O62        Co546   1.928       .  S
O63          C69   1.252       .  A
O63         Co80   1.976       .  S
O64          C70   1.238       .  A
O64        Co543   1.949       .  S
O65          C68   1.273       .  A
O65         Co82   2.040       .  S
O66          C67   1.270       .  A
O66         Co81   1.884       .  S
C67         C940   1.437       .  S
C68         C434   1.456       .  S
C69         C357   1.441       .  S
C70         C114   1.421       .  S
O71          C84   1.280   1_545  A
O71         Co79   2.029       .  S
O72          C85   1.245       .  A
O72         Co80   1.894       .  S
O73          C86   1.245       .  A
O73         Co81   1.981       .  S
O74          C87   1.275       .  A
O74         Co82   1.951       .  S
O75          C87   1.261       .  A
O75         Co80   1.997       .  S
O76          C86   1.234       .  A
O76         Co79   1.928       .  S
O77          C84   1.285       .  A
O77         Co82   2.039   1_565  S
O78          C85   1.268       .  A
O78         Co81   2.001       .  S
Co79        O528   1.949   1_545  S
Co79         O83   2.202       .  S
Co80         O83   2.058       .  S
Co81         O83   1.941       .  S
Co82        O526   1.928   1_545  S
Co82         O83   2.010       .  S
C84         C695   1.529   1_554  S
C85          C99   1.419       .  S
C86         C183   1.442       .  S
O88          C96   1.233       .  A
O88        Co108   1.917       .  S
O89          C97   1.220       .  A
O89        Co109   1.905       .  S
O90          C98   1.234       .  A
O90        Co110   1.962       .  S
O91          C99   1.255       .  A
O91        Co111   1.912       .  S
O92          C98   1.242       .  A
O92        Co109   1.993       .  S
O93          C99   1.277       .  A
O93        Co108   2.015       .  S
O94          C97   1.253       .  A
O94        Co111   2.060       .  S
O95          C96   1.246       .  A
O95        Co110   1.937       .  S
C96         C984   1.391       .  S
C97         C463   1.472       .  S
C98         C405   1.439       .  S
O100        C113   1.260       .  A
O100       Co108   1.965       .  S
O101        C114   1.293       .  A
O101       Co109   2.002       .  S
O102        C115   1.266       .  A
O102       Co110   1.984       .  S
O103        C116   1.230       .  A
O103       Co111   1.885       .  S
O104        C116   1.286       .  A
O104       Co109   2.064       .  S
O105        C115   1.278       .  A
O105       Co108   2.059       .  S
O106        C113   1.266       .  A
O106       Co111   2.047       .  S
O107        C114   1.269       .  A
O107       Co110   1.900       .  S
Co108       O112   2.052       .  S
Co109       O112   2.173       .  S
Co110       O112   1.919       .  S
Co111       O112   2.080       .  S
C113        C202   1.475   1_554  S
C115        C212   1.497   1_554  S
O117        C125   1.289       .  A
O117       Co137   2.082       .  S
O118        C126   1.300       .  A
O118       Co138   2.145       .  S
O119        C127   1.276       .  A
O119       Co139   2.020       .  S
O120        C128   1.300       .  A
O120       Co140   2.123       .  S
O121        C127   1.262       .  A
O121       Co138   1.975       .  S
O122        C128   1.260       .  A
O122       Co137   1.958       .  S
O123        C126   1.259       .  A
O123       Co140   1.915       .  S
O124        C125   1.262       .  A
O124       Co139   1.975       .  S
C126        C299   1.470       .  S
C127        C157   1.456       .  S
C128        C201   1.503       .  S
O129        C142   1.292       .  A
O129       Co137   2.088       .  S
O130        C143   1.295   1_455  A
O130       Co138   2.117       .  S
O131        C144   1.258       .  A
O131       Co139   2.033       .  S
O132        C145   1.260       .  A
O132       Co140   2.104       .  S
O133        C145   1.218       .  A
O133       Co138   1.941       .  S
O134        C144   1.229       .  A
O134       Co137   1.967       .  S
O135        C142   1.254       .  A
O135       Co140   1.861       .  S
O136        C143   1.252   1_455  A
O136       Co139   1.857       .  S
Co137       O141   2.096       .  S
Co138       O141   2.089       .  S
Co139       O141   1.961       .  S
Co140       O141   1.969       .  S
C142        C172   1.448       .  S
C143       C1114   1.470       .  S
C145        C241   1.505       .  S
O146        C154   1.243       .  A
O146       Co166   1.966       .  S
O147        C155   1.218       .  A
O147       Co167   1.945       .  S
O148        C156   1.226       .  A
O148       Co168   1.924       .  S
O149        C157   1.244       .  A
O149       Co633   1.855   1_545  S
O150        C156   1.248       .  A
O150       Co167   2.010       .  S
O151        C157   1.295       .  A
O151       Co630   2.113   1_545  S
O152        C155   1.241       .  A
O152       Co169   2.068       .  S
O153        C154   1.246       .  A
O153       Co168   2.003       .  S
C154        C493   1.440   1_556  S
C155        C328   1.454       .  S
C156        C230   1.422       .  S
O158        C171   1.264       .  A
O158       Co166   1.964       .  S
O159        C172   1.254       .  A
O159       Co167   1.922       .  S
O160        C173   1.240       .  A
O160       Co168   1.913       .  S
O161        C174   1.268       .  A
O161       Co169   1.986       .  S
O162        C174   1.269       .  A
O162       Co167   2.031       .  S
O163        C173   1.283       .  A
O163       Co166   2.089       .  S
O164        C171   1.294       .  A
O164       Co169   2.079       .  S
O165        C172   1.268       .  A
O165       Co168   2.030       .  S
Co166       O615   2.113       .  S
Co166       O170   2.153       .  S
Co167       O170   2.095       .  S
Co168       O170   2.103       .  S
Co169       O613   1.855       .  S
Co169       O170   2.035       .  S
C171       C1143   1.473   1_455  S
C174        C289   1.464       .  S
O175        C183   1.247       .  A
O175       Co195   1.997   1_554  S
O176        C184   1.281       .  A
O176       Co196   2.083       .  S
O177        C185   1.275       .  A
O177       Co197   2.018       .  S
O178        C186   1.263       .  A
O178       Co198   1.990       .  S
O179        C185   1.243       .  A
O179       Co196   1.933       .  S
O180        C186   1.241       .  A
O180       Co195   1.931       .  S
O181        C184   1.242       .  A
O181       Co198   1.984       .  S
O182        C183   1.246   1_556  A
O182       Co197   1.964       .  S
C184        C260   1.505       .  S
C185        C229   1.427       .  S
C186       C1071   1.470       .  S
O187        C200   1.250       .  A
O187       Co195   1.937       .  S
O188        C201   1.303       .  A
O188       Co196   2.115       .  S
O189        C202   1.265       .  A
O189       Co197   2.078       .  S
O190        C203   1.261       .  A
O190       Co198   2.047       .  S
O191        C203   1.279       .  A
O191       Co196   2.013       .  S
O192        C202   1.231       .  A
O192       Co195   1.945       .  S
O193        C200   1.251       .  A
O193       Co198   1.966       .  S
O194        C201   1.261       .  A
O194       Co197   1.967       .  S
Co195       O199   2.103       .  S
Co196       O199   2.008       .  S
Co197       O199   2.171       .  S
Co198       O199   2.138       .  S
C200        C214   1.411       .  S
C203        C318   1.476       .  S
O204        C212   1.263       .  A
O204       Co224   2.043       .  S
O205        C213   1.254       .  A
O205       Co225   2.011       .  S
O206        C214   1.305       .  A
O206       Co226   2.021       .  S
O207        C215   1.270       .  A
O207       Co227   2.017       .  S
O208        C214   1.259       .  A
O208       Co225   1.845       .  S
O209        C215   1.255       .  A
O209       Co224   1.967       .  S
O210        C213   1.246       .  A
O210       Co227   1.979       .  S
O211        C212   1.243       .  A
O211       Co226   1.954       .  S
C213        C270   1.465       .  S
C215       C1099   1.473       .  S
O216        C229   1.275       .  A
O216       Co688   2.013   1_545  S
O217        C230   1.273       .  A
O217       Co225   2.048       .  S
O218        C231   1.294       .  A
O218       Co226   2.137       .  S
O219        C232   1.267       .  A
O219       Co227   2.034       .  S
O220        C232   1.283       .  A
O220       Co225   2.051       .  S
O221        C231   1.262       .  A
O221       Co224   1.970       .  S
O222        C229   1.251       .  A
O222       Co691   1.914   1_545  S
O223        C230   1.237       .  A
O223       Co226   1.914       .  S
Co224       O680   2.013       .  S
Co224       O228   2.061       .  S
Co225       O228   2.011       .  S
Co226       O228   2.047       .  S
Co227       O686   1.914       .  S
Co227       O228   2.082       .  S
C231        C548   1.529   1_556  S
C232        C347   1.496       .  S
O233        C241   1.284       .  A
O233      Co1181   2.103   1_455  S
O234        C242   1.293       .  A
O234       Co254   2.165       .  S
O235        C243   1.276       .  A
O235       Co255   2.047       .  S
O236        C244   1.281       .  A
O236       Co256   2.078       .  S
O237        C243   1.264       .  A
O237       Co254   1.965       .  S
O238        C244   1.243       .  A
O238       Co253   1.941       .  S
O239        C242   1.262   1_655  A
O239      Co1184   1.974       .  S
O240        C241   1.241       .  A
O240       Co255   1.969       .  S
C242        C387   1.524   1_455  S
C243        C302   1.489       .  S
C244       C1201   1.473       .  S
O245        C258   1.279       .  A
O245       Co253   2.069       .  S
O246        C259   1.274       .  A
O246       Co254   2.025       .  S
O247        C260   1.278       .  A
O247      Co1183   2.112       .  S
O248        C261   1.283       .  A
O248       Co256   2.143       .  S
O249        C261   1.222       .  A
O249      Co1182   1.964       .  S
O250        C260   1.227       .  A
O250       Co253   1.967       .  S
O251        C258   1.256       .  A
O251       Co256   1.885       .  S
O252        C259   1.240       .  A
O252       Co255   1.923       .  S
Co253      O1161   2.103       .  S
Co253       O257   2.172       .  S
Co254      O1177   1.964   1_455  S
Co254      O1185   2.116       .  S
Co255      O1175   2.112   1_455  S
Co255      O1185   2.126       .  S
Co256      O1167   1.974       .  S
Co256       O257   1.979       .  S
O257      Co1182   2.116       .  S
O257      Co1183   2.126       .  S
C258        C317   1.462       .  S
C259       C1216   1.463   1_455  S
C261        C358   1.530       .  S
O262        C270   1.255       .  A
O262      Co1210   2.035       .  S
O263        C271   1.264       .  A
O263       Co283   2.121       .  S
O264        C272   1.265       .  A
O264       Co284   2.030       .  S
O265        C273   1.282       .  A
O265       Co285   2.083       .  S
O266        C272   1.258       .  A
O266       Co283   1.976       .  S
O267        C273   1.254       .  A
O267       Co282   1.880       .  S
O268        C271   1.219       .  A
O268      Co1213   1.942       .  S
O269        C270   1.237       .  A
O269       Co284   1.967       .  S
C271        C406   1.506       .  S
C272        C346   1.484       .  S
C273       C1172   1.473   1_455  S
O274        C287   1.286       .  A
O274       Co282   2.078       .  S
O275        C288   1.269       .  A
O275       Co747   2.008   1_545  S
O276        C289   1.266       .  A
O276      Co1212   2.023   1_455  S
O277        C290   1.289       .  A
O277       Co285   2.139       .  S
O278        C290   1.218       .  A
O278      Co1211   1.945   1_455  S
O279        C289   1.274       .  A
O279       Co282   2.000       .  S
O280        C287   1.268       .  A
O280       Co285   2.011       .  S
O281        C288   1.250       .  A
O281       Co748   1.946   1_545  S
Co282      O1190   2.035   1_455  S
Co282       O286   2.035       .  S
Co283       O739   2.008       .  S
Co283      O1206   1.945       .  S
Co283      O1214   2.135       .  S
Co284      O1204   2.023       .  S
Co284       O745   1.946       .  S
Co284      O1214   2.121       .  S
Co285      O1196   1.942   1_455  S
Co285       O286   2.151       .  S
O286      Co1211   2.135   1_455  S
O286      Co1212   2.121   1_455  S
C287        C331   1.504       .  S
C288       C1187   1.463       .  S
C290        C841   1.503       .  S
O291        C299   1.278       .  A
O291       Co311   1.901       .  S
O292        C300   1.223       .  A
O292       Co312   1.927       .  S
O293        C301   1.272       .  A
O293       Co313   2.037       .  S
O294        C302   1.248       .  A
O294       Co314   1.935       .  S
O295        C301   1.256       .  A
O295       Co312   1.985       .  S
O296        C302   1.275       .  A
O296       Co311   2.091       .  S
O297        C300   1.279       .  A
O297       Co314   2.083       .  S
O298        C299   1.318       .  A
O298       Co313   2.130       .  S
C300        C445   1.456       .  S
C301        C345   1.484       .  S
O303        C316   1.254       .  A
O303       Co311   1.971       .  S
O304        C317   1.247       .  A
O304       Co312   1.889       .  S
O305        C318   1.273       .  A
O305       Co313   1.924       .  S
O306        C319   1.213       .  A
O306       Co314   1.953       .  S
O307        C319   1.267       .  A
O307       Co312   2.066       .  S
O308        C318   1.300       .  A
O308       Co311   2.100       .  S
O309        C316   1.267       .  A
O309       Co314   2.015       .  S
O310        C317   1.287       .  A
O310       Co313   2.111       .  S
Co311       O315   2.026       .  S
Co312       O315   2.075       .  S
Co313       O315   2.005       .  S
Co314       O315   2.044       .  S
C316        C330   1.467       .  S
C319        C435   1.452       .  S
O320        C328   1.243       .  A
O320       Co340   1.960       .  S
O321        C329   1.269       .  A
O321       Co341   2.000       .  S
O322        C330   1.238       .  A
O322       Co806   1.850   1_545  S
O323        C331   1.243       .  A
O323       Co343   1.931       .  S
O324        C330   1.301       .  A
O324       Co805   2.113   1_545  S
O325        C331   1.285       .  A
O325       Co340   2.118       .  S
O326        C329   1.276       .  A
O326       Co343   2.064       .  S
O327        C328   1.234       .  A
O327       Co342   1.999       .  S
C329        C880   1.517       .  S
O332        C345   1.252       .  A
O332       Co340   1.917       .  S
O333        C346   1.233       .  A
O333       Co341   1.939       .  S
O334        C347   1.290       .  A
O334       Co342   1.919       .  S
O335        C348   1.270       .  A
O335       Co343   2.015       .  S
O336        C348   1.263       .  A
O336       Co341   2.041       .  S
O337        C347   1.315       .  A
O337       Co340   2.104       .  S
O338        C345   1.300       .  A
O338       Co343   2.127       .  S
O339        C346   1.256       .  A
O339       Co342   2.068       .  S
Co340       O344   2.180       .  S
Co341       O788   2.113       .  S
Co341       O344   2.060       .  S
Co342       O786   1.850       .  S
Co342       O344   1.971       .  S
Co343       O344   2.046       .  S
C348        C464   1.510       .  S
O349        C357   1.248       .  A
O349      Co1297   2.003       .  S
O350        C358   1.273       .  A
O350       Co370   2.117       .  S
O351        C359   1.265       .  A
O351       Co371   2.041       .  S
O352        C360   1.277       .  A
O352       Co372   2.070       .  S
O353        C359   1.269       .  A
O353       Co370   1.962       .  S
O354        C360   1.245       .  A
O354       Co369   1.858       .  S
O355        C358   1.224       .  A
O355      Co1300   1.974       .  S
O356        C357   1.240       .  A
O356       Co371   1.949       .  S
C359        C433   1.482       .  S
C360       C1317   1.442   1_455  S
O361        C374   1.270       .  A
O361       Co369   1.995       .  S
O362        C375   1.262       .  A
O362       Co834   2.000       .  S
O363        C376   1.269       .  A
O363      Co1299   2.046   1_455  S
O364        C377   1.290       .  A
O364       Co372   2.117       .  S
O365        C377   1.232   1_565  A
O365      Co1298   1.954   1_465  S
O366        C376   1.274       .  A
O366       Co369   2.019       .  S
O367        C374   1.256       .  A
O367       Co372   1.981       .  S
O368        C375   1.251       .  A
O368       Co835   1.930       .  S
Co369      O1277   2.003   1_455  S
Co369      O1301   2.001   1_455  S
Co370       O826   2.000   1_545  S
Co370      O1293   1.954   1_545  S
Co370       O373   2.123       .  S
Co371      O1291   2.046       .  S
Co371       O832   1.930   1_545  S
Co371       O373   2.129       .  S
Co372      O1283   1.974   1_455  S
Co372      O1301   2.182   1_455  S
O373      Co1297   2.001       .  S
O373      Co1300   2.182       .  S
C374        C418   1.450       .  S
C375       C1332   1.434       .  S
C377        C754   1.503   1_545  S
O378        C386   1.274       .  A
O378      Co1326   2.043   1_455  S
O379        C387   1.304   1_455  A
O379       Co399   2.147       .  S
O380        C388   1.256       .  A
O380       Co400   2.002       .  S
O381        C389   1.266       .  A
O381       Co401   2.049       .  S
O382        C388   1.260       .  A
O382       Co399   1.964       .  S
O383        C389   1.238       .  A
O383       Co398   1.884       .  S
O384        C387   1.279       .  A
O384      Co1329   1.937       .  S
O385        C386   1.258       .  A
O385       Co400   1.980       .  S
C388        C447   1.464       .  S
C389       C1288   1.442       .  S
O390        C403   1.272       .  A
O390       Co398   2.047       .  S
O391        C404   1.270   1_455  A
O391       Co399   2.067       .  S
O392        C405   1.263       .  A
O392      Co1328   2.009       .  S
O393        C406   1.303       .  A
O393       Co401   2.133       .  S
O394        C406   1.274       .  A
O394      Co1327   1.934       .  S
O395        C405   1.253       .  A
O395       Co398   1.952       .  S
O396        C403   1.268       .  A
O396       Co401   1.995       .  S
O397        C404   1.242       .  A
O397       Co400   1.896   1_655  S
Co398      O1306   2.043       .  S
Co398       O402   2.074       .  S
Co399      O1322   1.934       .  S
Co399      O1330   2.059   1_455  S
Co400      O1320   2.009   1_455  S
Co400      O1330   2.089   1_455  S
Co401      O1312   1.937       .  S
Co401       O402   2.071       .  S
O402      Co1327   2.059       .  S
O402      Co1328   2.089       .  S
C403        C462   1.515       .  S
C404       C1303   1.434       .  S
O407        C415   1.274       .  A
O407       Co427   1.998       .  S
O408        C416   1.211       .  A
O408       Co428   1.961       .  S
O409        C417   1.228       .  A
O409       Co893   1.947       .  S
O410        C418   1.247       .  A
O410       Co430   1.936       .  S
O411        C417   1.251       .  A
O411       Co892   2.002       .  S
O412        C418   1.268       .  A
O412       Co427   2.013       .  S
O413        C416   1.272       .  A
O413       Co430   2.156       .  S
O414        C415   1.289   1_565  A
O414       Co429   2.058   1_565  S
C416        C793   1.517   1_545  S
C417        C461   1.406       .  S
O419        C432   1.251       .  A
O419       Co427   1.966       .  S
O420        C433   1.249       .  A
O420       Co428   1.903       .  S
O421        C434   1.220       .  A
O421       Co429   1.926       .  S
O422        C435   1.221       .  A
O422       Co430   1.927       .  S
O423        C435   1.276       .  A
O423       Co428   2.067       .  S
O424        C434   1.247       .  A
O424       Co427   2.039       .  S
O425        C432   1.272       .  A
O425       Co430   2.023       .  S
O426        C433   1.299   1_565  A
O426       Co429   2.110   1_565  S
Co427       O431   2.185       .  S
Co428       O875   2.002   1_545  S
Co428       O431   2.073       .  S
Co429       O873   1.947   1_545  S
Co429       O431   1.976       .  S
Co430       O431   2.125       .  S
C432        C446   1.483       .  S
O436        C444   1.213       .  A
O436       Co456   1.887       .  S
O437        C445   1.216       .  A
O437       Co457   1.953       .  S
O438        C446   1.252       .  A
O438       Co458   1.963       .  S
O439        C447   1.237       .  A
O439       Co459   1.920       .  S
O440        C446   1.276       .  A
O440       Co457   2.041       .  S
O441        C447   1.273       .  A
O441       Co456   2.059       .  S
O442        C445   1.265       .  A
O442       Co459   2.057       .  S
O443        C444   1.281       .  A
O443       Co458   2.143       .  S
O448        C461   1.231       .  A
O448       Co456   1.918       .  S
O449        C462   1.251       .  A
O449       Co457   1.963       .  S
O450        C463   1.223       .  A
O450       Co458   1.917       .  S
O451        C464   1.210       .  A
O451       Co459   1.948       .  S
O452        C464   1.273       .  A
O452       Co457   2.157       .  S
O453        C463   1.258       .  A
O453       Co456   2.078       .  S
O454        C461   1.257       .  A
O454       Co459   2.013       .  S
O455        C462   1.284       .  A
O455       Co458   2.094       .  S
Co456       O460   2.132       .  S
Co457       O460   2.143       .  S
Co458       O460   2.135       .  S
Co459       O460   2.113       .  S
O465        C473   1.268       .  A
O465       Co485   1.898       .  S
O466        C474   1.218       .  A
O466       Co486   1.906       .  S
O467        C475   1.260       .  A
O467       Co487   1.985       .  S
O468        C476   1.239       .  A
O468       Co488   1.889       .  S
O469        C475   1.264       .  A
O469       Co486   2.031       .  S
O470        C476   1.283       .  A
O470       Co485   2.089       .  S
O471        C474   1.274       .  A
O471       Co488   2.074       .  S
O472        C473   1.319       .  A
O472       Co487   2.122       .  S
C473        C840   1.481       .  S
C474        C589   1.475   1_554  S
C475        C502   1.468       .  S
C476       C1459   1.437       .  S
O477        C490   1.248       .  A
O478        C491   1.234       .  A
O478       Co486   1.870       .  S
O479        C492   1.244       .  A
O479       Co487   1.950       .  S
O480        C493   1.254       .  A
O480       Co488   1.934       .  S
O481        C493   1.267       .  A
O481       Co486   2.015       .  S
O482        C492   1.257       .  A
O482       Co485   2.048       .  S
O483        C490   1.277       .  A
O484        C491   1.287       .  A
O484       Co487   2.090       .  S
Co485       O489   1.952       .  S
Co486       O489   2.079       .  S
Co487       O489   2.184       .  S
Co488       O489   2.099       .  S
C490        C522   1.520       .  S
C491        C551   1.445       .  S
C492        C879   1.498       .  S
O494        C502   1.258       .  A
O494       Co514   1.957       .  S
O495        C503   1.251       .  A
O495       Co515   1.936       .  S
O496        C504   1.280       .  A
O496       Co516   2.011       .  S
O497        C505   1.237       .  A
O497       Co517   1.872       .  S
O498        C504   1.284       .  A
O498       Co515   1.950       .  S
O499        C505   1.296       .  A
O499       Co514   2.064       .  S
O500        C503   1.273       .  A
O500       Co517   2.068       .  S
O501        C502   1.269       .  A
O501       Co516   2.031       .  S
C503        C637   1.475   1_554  S
C504        C608   1.462   1_554  S
C505        C580   1.440       .  S
O506        C519   1.186       .  A
O506       Co514   1.822       .  S
O507        C520   1.269       .  A
O507       Co515   1.978       .  S
O508        C521   1.248       .  A
O508       Co516   1.973       .  S
O509        C522   1.277       .  A
O509       Co517   1.969       .  S
O510        C522   1.293       .  A
O510       Co515   2.110       .  S
O511        C521   1.276       .  A
O511       Co514   2.069       .  S
O512        C519   1.263       .  A
O512       Co517   2.118       .  S
O513        C520   1.264       .  A
O513       Co516   1.895       .  S
Co514       O518   2.016       .  S
Co515       O518   2.020       .  S
Co516       O518   2.018       .  S
Co517       O518   2.157       .  S
C519        C908   1.499       .  S
C520       C1488   1.391   1_455  S
C521        C850   1.476       .  S
O523        C531   1.289       .  A
O523       Co543   2.057       .  S
O524        C532   1.238       .  A
O524       Co544   1.922       .  S
O525        C533   1.260       .  A
O525       Co545   1.987       .  S
O526        C534   1.238       .  A
O527        C533   1.252       .  A
O527       Co544   1.976       .  S
O528        C534   1.238       .  A
O529        C532   1.273       .  A
O529       Co546   2.040       .  S
O530        C531   1.270       .  A
O530       Co545   1.884       .  S
C531       C1404   1.437       .  S
C532        C898   1.456       .  S
C533        C821   1.441       .  S
C534        C578   1.421       .  S
O535        C548   1.280       .  A
O535       Co543   2.029       .  S
O536        C549   1.245       .  A
O536       Co544   1.894       .  S
O537        C550   1.245       .  A
O537       Co545   1.981       .  S
O538        C551   1.275       .  A
O538       Co546   1.951       .  S
O539        C551   1.261       .  A
O539       Co544   1.997       .  S
O540        C550   1.234       .  A
O540       Co543   1.928       .  S
O541        C548   1.285       .  A
O541       Co546   2.039       .  S
O542        C549   1.268       .  A
O542       Co545   2.001       .  S
Co543       O547   2.202       .  S
Co544       O547   2.058       .  S
Co545       O547   1.941       .  S
Co546       O547   2.010       .  S
C549        C563   1.419       .  S
C550        C647   1.442       .  S
O552        C560   1.233       .  A
O552       Co572   1.917       .  S
O553        C561   1.220       .  A
O553       Co573   1.905       .  S
O554        C562   1.234       .  A
O554       Co574   1.962       .  S
O555        C563   1.255       .  A
O555       Co575   1.912       .  S
O556        C562   1.242       .  A
O556       Co573   1.993       .  S
O557        C563   1.277       .  A
O557       Co572   2.015       .  S
O558        C561   1.253       .  A
O558       Co575   2.060       .  S
O559        C560   1.246       .  A
O559       Co574   1.937       .  S
C560       C1448   1.391       .  S
C561        C927   1.472       .  S
C562        C869   1.439       .  S
O564        C577   1.260       .  A
O564       Co572   1.965       .  S
O565        C578   1.293       .  A
O565       Co573   2.002       .  S
O566        C579   1.266       .  A
O566       Co574   1.984       .  S
O567        C580   1.230       .  A
O567       Co575   1.885       .  S
O568        C580   1.286       .  A
O568       Co573   2.064       .  S
O569        C579   1.278       .  A
O569       Co572   2.059       .  S
O570        C577   1.266       .  A
O570       Co575   2.047       .  S
O571        C578   1.269       .  A
O571       Co574   1.900       .  S
Co572       O576   2.052       .  S
Co573       O576   2.173       .  S
Co574       O576   1.919       .  S
Co575       O576   2.080       .  S
C577        C666   1.475   1_554  S
C579        C676   1.497   1_554  S
O581        C589   1.289       .  A
O581       Co601   2.082       .  S
O582        C590   1.300       .  A
O582       Co602   2.145       .  S
O583        C591   1.276       .  A
O583       Co603   2.020       .  S
O584        C592   1.300       .  A
O584       Co604   2.123       .  S
O585        C591   1.262       .  A
O585       Co602   1.975       .  S
O586        C592   1.260       .  A
O586       Co601   1.958       .  S
O587        C590   1.259       .  A
O587       Co604   1.915       .  S
O588        C589   1.262       .  A
O588       Co603   1.975       .  S
C590        C763   1.470       .  S
C591        C621   1.456       .  S
C592        C665   1.503       .  S
O593        C606   1.292       .  A
O593       Co601   2.088       .  S
O594        C607   1.295   1_455  A
O594       Co602   2.117       .  S
O595        C608   1.258       .  A
O595       Co603   2.033       .  S
O596        C609   1.260       .  A
O596       Co604   2.104       .  S
O597        C609   1.218       .  A
O597       Co602   1.941       .  S
O598        C608   1.229       .  A
O598       Co601   1.967       .  S
O599        C606   1.254       .  A
O599       Co604   1.861       .  S
O600        C607   1.252   1_455  A
O600       Co603   1.857       .  S
Co601       O605   2.096       .  S
Co602       O605   2.089       .  S
Co603       O605   1.961       .  S
Co604       O605   1.969       .  S
C606        C636   1.448       .  S
C607       C1578   1.470       .  S
C609        C705   1.505       .  S
O610        C618   1.243   1_545  A
O610       Co630   1.966   1_545  S
O611        C619   1.218       .  A
O611       Co631   1.945       .  S
O612        C620   1.226       .  A
O612       Co632   1.924       .  S
O613        C621   1.244       .  A
O614        C620   1.248       .  A
O614       Co631   2.010       .  S
O615        C621   1.295       .  A
O616        C619   1.241       .  A
O616       Co633   2.068       .  S
O617        C618   1.246       .  A
O617       Co632   2.003       .  S
C619        C792   1.454       .  S
C620        C694   1.422       .  S
O622        C635   1.264       .  A
O622       Co630   1.964       .  S
O623        C636   1.254       .  A
O623       Co631   1.922       .  S
O624        C637   1.240       .  A
O624       Co632   1.913       .  S
O625        C638   1.268       .  A
O625       Co633   1.986       .  S
O626        C638   1.269       .  A
O626       Co631   2.031       .  S
O627        C637   1.283       .  A
O627       Co630   2.089       .  S
O628        C635   1.294       .  A
O628       Co633   2.079       .  S
O629        C636   1.268       .  A
O629       Co632   2.030       .  S
Co630       O634   2.153       .  S
Co631       O634   2.095       .  S
Co632       O634   2.103       .  S
Co633       O634   2.035       .  S
C635       C1607   1.473   1_455  S
C638        C753   1.464       .  S
O639        C647   1.247       .  A
O639       Co659   1.997   1_554  S
O640        C648   1.281       .  A
O640       Co660   2.083       .  S
O641        C649   1.275       .  A
O641       Co661   2.018       .  S
O642        C650   1.263       .  A
O642       Co662   1.990       .  S
O643        C649   1.243       .  A
O643       Co660   1.933       .  S
O644        C650   1.241       .  A
O644       Co659   1.931       .  S
O645        C648   1.242       .  A
O645       Co662   1.984       .  S
O646        C647   1.246   1_556  A
O646       Co661   1.964       .  S
C648        C724   1.505       .  S
C649        C693   1.427       .  S
C650       C1535   1.470       .  S
O651        C664   1.250       .  A
O651       Co659   1.937       .  S
O652        C665   1.303       .  A
O652       Co660   2.115       .  S
O653        C666   1.265       .  A
O653       Co661   2.078       .  S
O654        C667   1.261       .  A
O654       Co662   2.047       .  S
O655        C667   1.279       .  A
O655       Co660   2.013       .  S
O656        C666   1.231       .  A
O656       Co659   1.945       .  S
O657        C664   1.251       .  A
O657       Co662   1.966       .  S
O658        C665   1.261       .  A
O658       Co661   1.967       .  S
Co659       O663   2.103       .  S
Co660       O663   2.008       .  S
Co661       O663   2.171       .  S
Co662       O663   2.138       .  S
C664        C678   1.411       .  S
C667        C782   1.476       .  S
O668        C676   1.263       .  A
O668       Co688   2.043       .  S
O669        C677   1.254       .  A
O669       Co689   2.011       .  S
O670        C678   1.305       .  A
O670       Co690   2.021       .  S
O671        C679   1.270       .  A
O671       Co691   2.017       .  S
O672        C678   1.259       .  A
O672       Co689   1.845       .  S
O673        C679   1.255       .  A
O673       Co688   1.967       .  S
O674        C677   1.246       .  A
O674       Co691   1.979       .  S
O675        C676   1.243       .  A
O675       Co690   1.954       .  S
C677        C734   1.465       .  S
C679       C1563   1.473       .  S
O680        C693   1.275       .  A
O681        C694   1.273       .  A
O681       Co689   2.048       .  S
O682        C695   1.294       .  A
O682       Co690   2.137       .  S
O683        C696   1.267       .  A
O683       Co691   2.034       .  S
O684        C696   1.283       .  A
O684       Co689   2.051       .  S
O685        C695   1.262       .  A
O685       Co688   1.970       .  S
O686        C693   1.251       .  A
O687        C694   1.237       .  A
O687       Co690   1.914       .  S
Co688       O692   2.061       .  S
Co689       O692   2.011       .  S
Co690       O692   2.047       .  S
Co691       O692   2.082       .  S
C696        C811   1.496       .  S
O697        C705   1.284       .  A
O697      Co1645   2.103   1_455  S
O698        C706   1.293       .  A
O698       Co718   2.165       .  S
O699        C707   1.276       .  A
O699       Co719   2.047       .  S
O700        C708   1.281       .  A
O700       Co720   2.078       .  S
O701        C707   1.264       .  A
O701       Co718   1.965       .  S
O702        C708   1.243       .  A
O702       Co717   1.941       .  S
O703        C706   1.262   1_655  A
O703      Co1648   1.974       .  S
O704        C705   1.241       .  A
O704       Co719   1.969       .  S
C706        C851   1.524   1_455  S
C707        C766   1.489       .  S
C708       C1665   1.473       .  S
O709        C722   1.279       .  A
O709       Co717   2.069       .  S
O710        C723   1.274       .  A
O710       Co718   2.025       .  S
O711        C724   1.278       .  A
O711      Co1647   2.112       .  S
O712        C725   1.283       .  A
O712       Co720   2.143       .  S
O713        C725   1.222       .  A
O713      Co1646   1.964       .  S
O714        C724   1.227       .  A
O714       Co717   1.967       .  S
O715        C722   1.256       .  A
O715       Co720   1.885       .  S
O716        C723   1.240       .  A
O716       Co719   1.923       .  S
Co717      O1625   2.103       .  S
Co717       O721   2.172       .  S
Co718      O1641   1.964   1_455  S
Co718      O1649   2.116       .  S
Co719      O1639   2.112   1_455  S
Co719      O1649   2.126       .  S
Co720      O1631   1.974       .  S
Co720       O721   1.979       .  S
O721      Co1646   2.116       .  S
O721      Co1647   2.126       .  S
C722        C781   1.462       .  S
C723       C1680   1.463   1_455  S
C725        C822   1.530       .  S
O726        C734   1.255       .  A
O726      Co1674   2.035       .  S
O727        C735   1.264       .  A
O727       Co747   2.121       .  S
O728        C736   1.265       .  A
O728       Co748   2.030       .  S
O729        C737   1.282       .  A
O729       Co749   2.083       .  S
O730        C736   1.258       .  A
O730       Co747   1.976       .  S
O731        C737   1.254       .  A
O731       Co746   1.880       .  S
O732        C735   1.219       .  A
O732      Co1677   1.942       .  S
O733        C734   1.237       .  A
O733       Co748   1.967       .  S
C735        C870   1.506       .  S
C736        C810   1.484       .  S
C737       C1636   1.473   1_455  S
O738        C751   1.286       .  A
O738       Co746   2.078       .  S
O739        C752   1.269       .  A
O740        C753   1.266       .  A
O740      Co1676   2.023   1_455  S
O741        C754   1.289       .  A
O741       Co749   2.139       .  S
O742        C754   1.218       .  A
O742      Co1675   1.945   1_455  S
O743        C753   1.274       .  A
O743       Co746   2.000       .  S
O744        C751   1.268       .  A
O744       Co749   2.011       .  S
O745        C752   1.250       .  A
Co746      O1654   2.035   1_455  S
Co746       O750   2.035       .  S
Co747      O1670   1.945       .  S
Co747      O1678   2.135       .  S
Co748      O1668   2.023       .  S
Co748      O1678   2.121       .  S
Co749      O1660   1.942   1_455  S
Co749       O750   2.151       .  S
O750      Co1675   2.135   1_455  S
O750      Co1676   2.121   1_455  S
C751        C795   1.504       .  S
C752       C1651   1.463       .  S
O755        C763   1.278       .  A
O755       Co775   1.901       .  S
O756        C764   1.223       .  A
O756       Co776   1.927       .  S
O757        C765   1.272       .  A
O757       Co777   2.037       .  S
O758        C766   1.248       .  A
O758       Co778   1.935       .  S
O759        C765   1.256       .  A
O759       Co776   1.985       .  S
O760        C766   1.275       .  A
O760       Co775   2.091       .  S
O761        C764   1.279       .  A
O761       Co778   2.083       .  S
O762        C763   1.318       .  A
O762       Co777   2.130       .  S
C764        C909   1.456       .  S
C765        C809   1.484       .  S
O767        C780   1.254       .  A
O767       Co775   1.971       .  S
O768        C781   1.247       .  A
O768       Co776   1.889       .  S
O769        C782   1.273       .  A
O769       Co777   1.924       .  S
O770        C783   1.213       .  A
O770       Co778   1.953       .  S
O771        C783   1.267       .  A
O771       Co776   2.066       .  S
O772        C782   1.300       .  A
O772       Co775   2.100       .  S
O773        C780   1.267       .  A
O773       Co778   2.015       .  S
O774        C781   1.287       .  A
O774       Co777   2.111       .  S
Co775       O779   2.026       .  S
Co776       O779   2.075       .  S
Co777       O779   2.005       .  S
Co778       O779   2.044       .  S
C780        C794   1.467       .  S
C783        C899   1.452       .  S
O784        C792   1.243       .  A
O784       Co804   1.960       .  S
O785        C793   1.269       .  A
O785       Co805   2.000       .  S
O786        C794   1.238       .  A
O787        C795   1.243       .  A
O787       Co807   1.931       .  S
O788        C794   1.301       .  A
O789        C795   1.285       .  A
O789       Co804   2.118       .  S
O790        C793   1.276       .  A
O790       Co807   2.064       .  S
O791        C792   1.234       .  A
O791       Co806   1.999       .  S
O796        C809   1.252       .  A
O796       Co804   1.917       .  S
O797        C810   1.233       .  A
O797       Co805   1.939       .  S
O798        C811   1.290       .  A
O798       Co806   1.919       .  S
O799        C812   1.270       .  A
O799       Co807   2.015       .  S
O800        C812   1.263       .  A
O800       Co805   2.041       .  S
O801        C811   1.315       .  A
O801       Co804   2.104       .  S
O802        C809   1.300       .  A
O802       Co807   2.127       .  S
O803        C810   1.256       .  A
O803       Co806   2.068       .  S
Co804       O808   2.180       .  S
Co805       O808   2.060       .  S
Co806       O808   1.971       .  S
Co807       O808   2.046       .  S
C812        C928   1.510       .  S
O813        C821   1.248       .  A
O813      Co1761   2.003       .  S
O814        C822   1.273       .  A
O814       Co834   2.117       .  S
O815        C823   1.265       .  A
O815       Co835   2.041       .  S
O816        C824   1.277       .  A
O816       Co836   2.070       .  S
O817        C823   1.269       .  A
O817       Co834   1.962       .  S
O818        C824   1.245       .  A
O818       Co833   1.858       .  S
O819        C822   1.224       .  A
O819      Co1764   1.974       .  S
O820        C821   1.240       .  A
O820       Co835   1.949       .  S
C823        C897   1.482       .  S
C824       C1781   1.442   1_455  S
O825        C838   1.270       .  A
O825       Co833   1.995       .  S
O826        C839   1.262       .  A
O827        C840   1.269       .  A
O827      Co1763   2.046   1_455  S
O828        C841   1.290       .  A
O828       Co836   2.117       .  S
O829        C841   1.232       .  A
O829      Co1762   1.954   1_455  S
O830        C840   1.274       .  A
O830       Co833   2.019       .  S
O831        C838   1.256       .  A
O831       Co836   1.981       .  S
O832        C839   1.251       .  A
Co833      O1741   2.003   1_455  S
Co833      O1765   2.001   1_455  S
Co834      O1757   1.954       .  S
Co834       O837   2.123       .  S
Co835      O1755   2.046       .  S
Co835       O837   2.129       .  S
Co836      O1747   1.974   1_455  S
Co836      O1765   2.182   1_455  S
O837      Co1761   2.001       .  S
O837      Co1764   2.182       .  S
C838        C882   1.450       .  S
C839       C1796   1.434       .  S
O842        C850   1.274       .  A
O842      Co1790   2.043   1_455  S
O843        C851   1.304   1_455  A
O843       Co863   2.147       .  S
O844        C852   1.256       .  A
O844       Co864   2.002       .  S
O845        C853   1.266       .  A
O845       Co865   2.049       .  S
O846        C852   1.260       .  A
O846       Co863   1.964       .  S
O847        C853   1.238       .  A
O847       Co862   1.884       .  S
O848        C851   1.279       .  A
O848      Co1793   1.937       .  S
O849        C850   1.258       .  A
O849       Co864   1.980       .  S
C852        C911   1.464       .  S
C853       C1752   1.442       .  S
O854        C867   1.272       .  A
O854       Co862   2.047       .  S
O855        C868   1.270   1_455  A
O855       Co863   2.067       .  S
O856        C869   1.263       .  A
O856      Co1792   2.009       .  S
O857        C870   1.303       .  A
O857       Co865   2.133       .  S
O858        C870   1.274       .  A
O858      Co1791   1.934       .  S
O859        C869   1.253       .  A
O859       Co862   1.952       .  S
O860        C867   1.268       .  A
O860       Co865   1.995       .  S
O861        C868   1.242       .  A
O861       Co864   1.896   1_655  S
Co862      O1770   2.043       .  S
Co862       O866   2.074       .  S
Co863      O1786   1.934       .  S
Co863      O1794   2.059   1_455  S
Co864      O1784   2.009   1_455  S
Co864      O1794   2.089   1_455  S
Co865      O1776   1.937       .  S
Co865       O866   2.071       .  S
O866      Co1791   2.059       .  S
O866      Co1792   2.089       .  S
C867        C926   1.515       .  S
C868       C1767   1.434       .  S
O871        C879   1.274       .  A
O871       Co891   1.998       .  S
O872        C880   1.211       .  A
O872       Co892   1.961       .  S
O873        C881   1.228       .  A
O874        C882   1.247       .  A
O874       Co894   1.936       .  S
O875        C881   1.251       .  A
O876        C882   1.268       .  A
O876       Co891   2.013       .  S
O877        C880   1.272       .  A
O877       Co894   2.156       .  S
O878        C879   1.289       .  A
O878       Co893   2.058       .  S
C881        C925   1.406       .  S
O883        C896   1.251       .  A
O883       Co891   1.966       .  S
O884        C897   1.249       .  A
O884       Co892   1.903       .  S
O885        C898   1.220       .  A
O885       Co893   1.926       .  S
O886        C899   1.221       .  A
O886       Co894   1.927       .  S
O887        C899   1.276       .  A
O887       Co892   2.067       .  S
O888        C898   1.247       .  A
O888       Co891   2.039       .  S
O889        C896   1.272       .  A
O889       Co894   2.023       .  S
O890        C897   1.299       .  A
O890       Co893   2.110       .  S
Co891       O895   2.185       .  S
Co892       O895   2.073       .  S
Co893       O895   1.976       .  S
Co894       O895   2.125       .  S
C896        C910   1.483       .  S
O900        C908   1.213       .  A
O900       Co920   1.887       .  S
O901        C909   1.216       .  A
O901       Co921   1.953       .  S
O902        C910   1.252       .  A
O902       Co922   1.963       .  S
O903        C911   1.237       .  A
O903       Co923   1.920       .  S
O904        C910   1.276       .  A
O904       Co921   2.041       .  S
O905        C911   1.273       .  A
O905       Co920   2.059       .  S
O906        C909   1.265       .  A
O906       Co923   2.057       .  S
O907        C908   1.281       .  A
O907       Co922   2.143       .  S
O912        C925   1.231       .  A
O912       Co920   1.918       .  S
O913        C926   1.251       .  A
O913       Co921   1.963       .  S
O914        C927   1.223       .  A
O914       Co922   1.917       .  S
O915        C928   1.210       .  A
O915       Co923   1.948       .  S
O916        C928   1.273       .  A
O916       Co921   2.157       .  S
O917        C927   1.258       .  A
O917       Co920   2.078       .  S
O918        C925   1.257       .  A
O918       Co923   2.013       .  S
O919        C926   1.284       .  A
O919       Co922   2.094       .  S
Co920       O924   2.132       .  S
Co921       O924   2.143       .  S
Co922       O924   2.135       .  S
Co923       O924   2.113       .  S
O929        C937   1.268       .  A
O929       Co949   1.898       .  S
O930        C938   1.218       .  A
O930       Co950   1.906       .  S
O931        C939   1.260       .  A
O931       Co951   1.985       .  S
O932        C940   1.239       .  A
O932       Co952   1.889       .  S
O933        C939   1.264       .  A
O933       Co950   2.031       .  S
O934        C940   1.283       .  A
O934       Co949   2.089       .  S
O935        C938   1.274       .  A
O935       Co952   2.074       .  S
O936        C937   1.319       .  A
O936       Co951   2.122       .  S
C937       C1304   1.481       .  S
C938       C1053   1.475   1_554  S
C939        C966   1.468       .  S
O941        C954   1.248       .  A
O941      Co1413   1.944       .  S
O942        C955   1.234       .  A
O942       Co950   1.870       .  S
O943        C956   1.244       .  A
O943       Co951   1.950       .  S
O944        C957   1.254       .  A
O944       Co952   1.934       .  S
O945        C957   1.267       .  A
O945       Co950   2.015       .  S
O946        C956   1.257       .  A
O946       Co949   2.048       .  S
O947        C954   1.277       .  A
O947      Co1416   2.097       .  S
O948        C955   1.287       .  A
O948       Co951   2.090       .  S
Co949      O1405   1.944   1_545  S
Co949       O953   1.952       .  S
Co950       O953   2.079       .  S
Co951       O953   2.184       .  S
Co952      O1411   2.097   1_545  S
Co952       O953   2.099       .  S
C954        C986   1.520       .  S
C955       C1015   1.445       .  S
C956       C1343   1.498       .  S
C957       C1546   1.440   1_544  S
O958        C966   1.258       .  A
O958       Co978   1.957       .  S
O959        C967   1.251       .  A
O959       Co979   1.936       .  S
O960        C968   1.280       .  A
O960       Co980   2.011       .  S
O961        C969   1.237       .  A
O961       Co981   1.872       .  S
O962        C968   1.284       .  A
O962       Co979   1.950       .  S
O963        C969   1.296       .  A
O963       Co978   2.064       .  S
O964        C967   1.273       .  A
O964       Co981   2.068       .  S
O965        C966   1.269       .  A
O965       Co980   2.031       .  S
C967       C1101   1.475   1_554  S
C968       C1072   1.462   1_554  S
C969       C1044   1.440       .  S
O970        C983   1.186       .  A
O970       Co978   1.822       .  S
O971        C984   1.269       .  A
O971       Co979   1.978       .  S
O972        C985   1.248       .  A
O972       Co980   1.973       .  S
O973        C986   1.277       .  A
O973       Co981   1.969       .  S
O974        C986   1.293       .  A
O974       Co979   2.110       .  S
O975        C985   1.276       .  A
O975       Co978   2.069       .  S
O976        C983   1.263       .  A
O976       Co981   2.118       .  S
O977        C984   1.264       .  A
O977       Co980   1.895       .  S
Co978       O982   2.016       .  S
Co979       O982   2.020       .  S
Co980       O982   2.018       .  S
Co981       O982   2.157       .  S
C983       C1372   1.499       .  S
C985       C1314   1.476       .  S
O987        C995   1.289   1_655  A
O987      Co1007   2.057       .  S
O988        C996   1.238       .  A
O988      Co1008   1.922       .  S
O989        C997   1.260       .  A
O989      Co1009   1.987       .  S
O990        C998   1.238       .  A
O990      Co1474   1.928       .  S
O991        C997   1.252       .  A
O991      Co1008   1.976       .  S
O992        C998   1.238       .  A
O992      Co1471   1.949       .  S
O993        C996   1.273       .  A
O993      Co1010   2.040       .  S
O994        C995   1.270   1_655  A
O994      Co1009   1.884       .  S
C996       C1362   1.456       .  S
C997       C1285   1.441       .  S
C998       C1042   1.421       .  S
O999       C1012   1.280   1_545  A
O999      Co1007   2.029       .  S
O1000      C1013   1.245       .  A
O1000     Co1008   1.894       .  S
O1001      C1014   1.245       .  A
O1001     Co1009   1.981       .  S
O1002      C1015   1.275       .  A
O1002     Co1010   1.951       .  S
O1003      C1015   1.261       .  A
O1003     Co1008   1.997       .  S
O1004      C1014   1.234       .  A
O1004     Co1007   1.928       .  S
O1005      C1012   1.285       .  A
O1005     Co1010   2.039   1_565  S
O1006      C1013   1.268       .  A
O1006     Co1009   2.001       .  S
Co1007     O1456   1.949   1_545  S
Co1007     O1011   2.202       .  S
Co1008     O1011   2.058       .  S
Co1009     O1011   1.941       .  S
Co1010     O1454   1.928   1_545  S
Co1010     O1011   2.010       .  S
C1012      C1623   1.529   1_554  S
C1013      C1027   1.419       .  S
C1014      C1111   1.442       .  S
O1016      C1024   1.233       .  A
O1016     Co1036   1.917       .  S
O1017      C1025   1.220       .  A
O1017     Co1037   1.905       .  S
O1018      C1026   1.234       .  A
O1018     Co1038   1.962       .  S
O1019      C1027   1.255       .  A
O1019     Co1039   1.912       .  S
O1020      C1026   1.242       .  A
O1020     Co1037   1.993       .  S
O1021      C1027   1.277       .  A
O1021     Co1036   2.015       .  S
O1022      C1025   1.253       .  A
O1022     Co1039   2.060       .  S
O1023      C1024   1.246       .  A
O1023     Co1038   1.937       .  S
C1025      C1391   1.472       .  S
C1026      C1333   1.439       .  S
O1028      C1041   1.260       .  A
O1028     Co1036   1.965       .  S
O1029      C1042   1.293       .  A
O1029     Co1037   2.002       .  S
O1030      C1043   1.266       .  A
O1030     Co1038   1.984       .  S
O1031      C1044   1.230       .  A
O1031     Co1039   1.885       .  S
O1032      C1044   1.286       .  A
O1032     Co1037   2.064       .  S
O1033      C1043   1.278       .  A
O1033     Co1036   2.059       .  S
O1034      C1041   1.266       .  A
O1034     Co1039   2.047       .  S
O1035      C1042   1.269       .  A
O1035     Co1038   1.900       .  S
Co1036     O1040   2.052       .  S
Co1037     O1040   2.173       .  S
Co1038     O1040   1.919       .  S
Co1039     O1040   2.080       .  S
C1041      C1130   1.475   1_554  S
C1043      C1140   1.497   1_554  S
O1045      C1053   1.289       .  A
O1045     Co1065   2.082       .  S
O1046      C1054   1.300       .  A
O1046     Co1066   2.145       .  S
O1047      C1055   1.276       .  A
O1047     Co1067   2.020       .  S
O1048      C1056   1.300       .  A
O1048     Co1068   2.123       .  S
O1049      C1055   1.262       .  A
O1049     Co1066   1.975       .  S
O1050      C1056   1.260       .  A
O1050     Co1065   1.958       .  S
O1051      C1054   1.259       .  A
O1051     Co1068   1.915       .  S
O1052      C1053   1.262       .  A
O1052     Co1067   1.975       .  S
C1054      C1227   1.470       .  S
C1055      C1085   1.456       .  S
C1056      C1129   1.503       .  S
O1057      C1070   1.292       .  A
O1057     Co1065   2.088       .  S
O1058      C1071   1.295       .  A
O1058     Co1066   2.117       .  S
O1059      C1072   1.258       .  A
O1059     Co1067   2.033       .  S
O1060      C1073   1.260       .  A
O1060     Co1068   2.104       .  S
O1061      C1073   1.218       .  A
O1061     Co1066   1.941       .  S
O1062      C1072   1.229       .  A
O1062     Co1065   1.967       .  S
O1063      C1070   1.254       .  A
O1063     Co1068   1.861       .  S
O1064      C1071   1.252       .  A
O1064     Co1067   1.857       .  S
Co1065     O1069   2.096       .  S
Co1066     O1069   2.089       .  S
Co1067     O1069   1.961       .  S
Co1068     O1069   1.969       .  S
C1070      C1100   1.448       .  S
C1073      C1169   1.505       .  S
O1074      C1082   1.243       .  A
O1074     Co1094   1.966       .  S
O1075      C1083   1.218       .  A
O1075     Co1095   1.945       .  S
O1076      C1084   1.226       .  A
O1076     Co1096   1.924       .  S
O1077      C1085   1.244       .  A
O1077     Co1561   1.855   1_545  S
O1078      C1084   1.248       .  A
O1078     Co1095   2.010       .  S
O1079      C1085   1.295       .  A
O1079     Co1558   2.113   1_545  S
O1080      C1083   1.241       .  A
O1080     Co1097   2.068       .  S
O1081      C1082   1.246       .  A
O1081     Co1096   2.003       .  S
C1082      C1421   1.440   1_556  S
C1083      C1256   1.454       .  S
C1084      C1158   1.422       .  S
O1086      C1099   1.264       .  A
O1086     Co1094   1.964       .  S
O1087      C1100   1.254       .  A
O1087     Co1095   1.922       .  S
O1088      C1101   1.240       .  A
O1088     Co1096   1.913       .  S
O1089      C1102   1.268       .  A
O1089     Co1097   1.986       .  S
O1090      C1102   1.269       .  A
O1090     Co1095   2.031       .  S
O1091      C1101   1.283       .  A
O1091     Co1094   2.089       .  S
O1092      C1099   1.294       .  A
O1092     Co1097   2.079       .  S
O1093      C1100   1.268       .  A
O1093     Co1096   2.030       .  S
Co1094     O1543   2.113       .  S
Co1094     O1098   2.153       .  S
Co1095     O1098   2.095       .  S
Co1096     O1098   2.103       .  S
Co1097     O1541   1.855       .  S
Co1097     O1098   2.035       .  S
C1102      C1217   1.464       .  S
O1103      C1111   1.247       .  A
O1103     Co1123   1.997   1_554  S
O1104      C1112   1.281       .  A
O1104     Co1124   2.083       .  S
O1105      C1113   1.275       .  A
O1105     Co1125   2.018       .  S
O1106      C1114   1.263       .  A
O1106     Co1126   1.990       .  S
O1107      C1113   1.243       .  A
O1107     Co1124   1.933       .  S
O1108      C1114   1.241       .  A
O1108     Co1123   1.931       .  S
O1109      C1112   1.242       .  A
O1109     Co1126   1.984       .  S
O1110      C1111   1.246   1_556  A
O1110     Co1125   1.964       .  S
C1112      C1188   1.505       .  S
C1113      C1157   1.427       .  S
O1115      C1128   1.250       .  A
O1115     Co1123   1.937       .  S
O1116      C1129   1.303       .  A
O1116     Co1124   2.115       .  S
O1117      C1130   1.265       .  A
O1117     Co1125   2.078       .  S
O1118      C1131   1.261       .  A
O1118     Co1126   2.047       .  S
O1119      C1131   1.279       .  A
O1119     Co1124   2.013       .  S
O1120      C1130   1.231       .  A
O1120     Co1123   1.945       .  S
O1121      C1128   1.251       .  A
O1121     Co1126   1.966       .  S
O1122      C1129   1.261       .  A
O1122     Co1125   1.967       .  S
Co1123     O1127   2.103       .  S
Co1124     O1127   2.008       .  S
Co1125     O1127   2.171       .  S
Co1126     O1127   2.138       .  S
C1128      C1142   1.411       .  S
C1131      C1246   1.476       .  S
O1132      C1140   1.263       .  A
O1132     Co1152   2.043       .  S
O1133      C1141   1.254       .  A
O1133     Co1153   2.011       .  S
O1134      C1142   1.305       .  A
O1134     Co1154   2.021       .  S
O1135      C1143   1.270       .  A
O1135     Co1155   2.017       .  S
O1136      C1142   1.259       .  A
O1136     Co1153   1.845       .  S
O1137      C1143   1.255       .  A
O1137     Co1152   1.967       .  S
O1138      C1141   1.246       .  A
O1138     Co1155   1.979       .  S
O1139      C1140   1.243       .  A
O1139     Co1154   1.954       .  S
C1141      C1198   1.465       .  S
O1144      C1157   1.275       .  A
O1144     Co1616   2.013   1_545  S
O1145      C1158   1.273       .  A
O1145     Co1153   2.048       .  S
O1146      C1159   1.294       .  A
O1146     Co1154   2.137       .  S
O1147      C1160   1.267       .  A
O1147     Co1155   2.034       .  S
O1148      C1160   1.283       .  A
O1148     Co1153   2.051       .  S
O1149      C1159   1.262       .  A
O1149     Co1152   1.970       .  S
O1150      C1157   1.251       .  A
O1150     Co1619   1.914   1_545  S
O1151      C1158   1.237       .  A
O1151     Co1154   1.914       .  S
Co1152     O1608   2.013       .  S
Co1152     O1156   2.061       .  S
Co1153     O1156   2.011       .  S
Co1154     O1156   2.047       .  S
Co1155     O1614   1.914       .  S
Co1155     O1156   2.082       .  S
C1159      C1476   1.529   1_556  S
C1160      C1275   1.496       .  S
O1161      C1169   1.284       .  A
O1162      C1170   1.293       .  A
O1162     Co1182   2.165       .  S
O1163      C1171   1.276       .  A
O1163     Co1183   2.047       .  S
O1164      C1172   1.281       .  A
O1164     Co1184   2.078       .  S
O1165      C1171   1.264       .  A
O1165     Co1182   1.965       .  S
O1166      C1172   1.243       .  A
O1166     Co1181   1.941       .  S
O1167      C1170   1.262       .  A
O1168      C1169   1.241       .  A
O1168     Co1183   1.969       .  S
C1170      C1315   1.524       .  S
C1171      C1230   1.489       .  S
O1173      C1186   1.279       .  A
O1173     Co1181   2.069       .  S
O1174      C1187   1.274       .  A
O1174     Co1182   2.025       .  S
O1175      C1188   1.278       .  A
O1176      C1189   1.283       .  A
O1176     Co1184   2.143       .  S
O1177      C1189   1.222       .  A
O1178      C1188   1.227       .  A
O1178     Co1181   1.967       .  S
O1179      C1186   1.256       .  A
O1179     Co1184   1.885       .  S
O1180      C1187   1.240       .  A
O1180     Co1183   1.923       .  S
Co1181     O1185   2.172   1_655  S
Co1184     O1185   1.979   1_655  S
C1186      C1245   1.462       .  S
C1189      C1286   1.530       .  S
O1190      C1198   1.255       .  A
O1191      C1199   1.264       .  A
O1191     Co1211   2.121       .  S
O1192      C1200   1.265       .  A
O1192     Co1212   2.030       .  S
O1193      C1201   1.282       .  A
O1193     Co1213   2.083       .  S
O1194      C1200   1.258       .  A
O1194     Co1211   1.976       .  S
O1195      C1201   1.254       .  A
O1195     Co1210   1.880       .  S
O1196      C1199   1.219       .  A
O1197      C1198   1.237       .  A
O1197     Co1212   1.967       .  S
C1199      C1334   1.506       .  S
C1200      C1274   1.484       .  S
O1202      C1215   1.286       .  A
O1202     Co1210   2.078       .  S
O1203      C1216   1.269       .  A
O1203     Co1675   2.008   1_545  S
O1204      C1217   1.266       .  A
O1205      C1218   1.289       .  A
O1205     Co1213   2.139       .  S
O1206      C1218   1.218       .  A
O1207      C1217   1.274       .  A
O1207     Co1210   2.000       .  S
O1208      C1215   1.268       .  A
O1208     Co1213   2.011       .  S
O1209      C1216   1.250   1_455  A
O1209     Co1676   1.946   1_445  S
Co1210     O1214   2.035       .  S
Co1211     O1667   2.008       .  S
Co1212     O1673   1.946   1_655  S
Co1213     O1214   2.151       .  S
C1215      C1259   1.504       .  S
C1218      C1769   1.503       .  S
O1219      C1227   1.278       .  A
O1219     Co1239   1.901       .  S
O1220      C1228   1.223       .  A
O1220     Co1240   1.927       .  S
O1221      C1229   1.272       .  A
O1221     Co1241   2.037       .  S
O1222      C1230   1.248       .  A
O1222     Co1242   1.935       .  S
O1223      C1229   1.256       .  A
O1223     Co1240   1.985       .  S
O1224      C1230   1.275       .  A
O1224     Co1239   2.091       .  S
O1225      C1228   1.279       .  A
O1225     Co1242   2.083       .  S
O1226      C1227   1.318       .  A
O1226     Co1241   2.130       .  S
C1228      C1373   1.456       .  S
C1229      C1273   1.484       .  S
O1231      C1244   1.254       .  A
O1231     Co1239   1.971       .  S
O1232      C1245   1.247       .  A
O1232     Co1240   1.889       .  S
O1233      C1246   1.273       .  A
O1233     Co1241   1.924       .  S
O1234      C1247   1.213       .  A
O1234     Co1242   1.953       .  S
O1235      C1247   1.267       .  A
O1235     Co1240   2.066       .  S
O1236      C1246   1.300       .  A
O1236     Co1239   2.100       .  S
O1237      C1244   1.267       .  A
O1237     Co1242   2.015       .  S
O1238      C1245   1.287       .  A
O1238     Co1241   2.111       .  S
Co1239     O1243   2.026       .  S
Co1240     O1243   2.075       .  S
Co1241     O1243   2.005       .  S
Co1242     O1243   2.044       .  S
C1244      C1258   1.467       .  S
C1247      C1363   1.452       .  S
O1248      C1256   1.243       .  A
O1248     Co1268   1.960       .  S
O1249      C1257   1.269       .  A
O1249     Co1269   2.000       .  S
O1250      C1258   1.238       .  A
O1250     Co1734   1.850   1_545  S
O1251      C1259   1.243       .  A
O1251     Co1271   1.931       .  S
O1252      C1258   1.301       .  A
O1252     Co1733   2.113   1_545  S
O1253      C1259   1.285       .  A
O1253     Co1268   2.118       .  S
O1254      C1257   1.276       .  A
O1254     Co1271   2.064       .  S
O1255      C1256   1.234       .  A
O1255     Co1270   1.999       .  S
C1257      C1808   1.517       .  S
O1260      C1273   1.252       .  A
O1260     Co1268   1.917       .  S
O1261      C1274   1.233       .  A
O1261     Co1269   1.939       .  S
O1262      C1275   1.290       .  A
O1262     Co1270   1.919       .  S
O1263      C1276   1.270       .  A
O1263     Co1271   2.015       .  S
O1264      C1276   1.263       .  A
O1264     Co1269   2.041       .  S
O1265      C1275   1.315       .  A
O1265     Co1268   2.104       .  S
O1266      C1273   1.300       .  A
O1266     Co1271   2.127       .  S
O1267      C1274   1.256       .  A
O1267     Co1270   2.068       .  S
Co1268     O1272   2.180       .  S
Co1269     O1716   2.113       .  S
Co1269     O1272   2.060       .  S
Co1270     O1714   1.850       .  S
Co1270     O1272   1.971       .  S
Co1271     O1272   2.046       .  S
C1276      C1392   1.510       .  S
O1277      C1285   1.248       .  A
O1278      C1286   1.273       .  A
O1278     Co1298   2.117       .  S
O1279      C1287   1.265       .  A
O1279     Co1299   2.041       .  S
O1280      C1288   1.277       .  A
O1280     Co1300   2.070       .  S
O1281      C1287   1.269       .  A
O1281     Co1298   1.962       .  S
O1282      C1288   1.245       .  A
O1282     Co1297   1.858       .  S
O1283      C1286   1.224       .  A
O1284      C1285   1.240       .  A
O1284     Co1299   1.949       .  S
C1287      C1361   1.482       .  S
O1289      C1302   1.270       .  A
O1289     Co1297   1.995       .  S
O1290      C1303   1.262       .  A
O1290     Co1762   2.000       .  S
O1291      C1304   1.269       .  A
O1292      C1305   1.290       .  A
O1292     Co1300   2.117       .  S
O1293      C1305   1.232   1_565  A
O1294      C1304   1.274       .  A
O1294     Co1297   2.019       .  S
O1295      C1302   1.256       .  A
O1295     Co1300   1.981       .  S
O1296      C1303   1.251   1_455  A
O1296     Co1763   1.930   1_455  S
Co1298     O1754   2.000   1_545  S
Co1298     O1301   2.123       .  S
Co1299     O1760   1.930   1_645  S
Co1299     O1301   2.129       .  S
C1302      C1346   1.450       .  S
C1305      C1682   1.503   1_545  S
O1306      C1314   1.274       .  A
O1307      C1315   1.304       .  A
O1307     Co1327   2.147       .  S
O1308      C1316   1.256       .  A
O1308     Co1328   2.002       .  S
O1309      C1317   1.266       .  A
O1309     Co1329   2.049       .  S
O1310      C1316   1.260       .  A
O1310     Co1327   1.964       .  S
O1311      C1317   1.238       .  A
O1311     Co1326   1.884       .  S
O1312      C1315   1.279       .  A
O1313      C1314   1.258       .  A
O1313     Co1328   1.980       .  S
C1316      C1375   1.464       .  S
O1318      C1331   1.272       .  A
O1318     Co1326   2.047       .  S
O1319      C1332   1.270       .  A
O1319     Co1327   2.067       .  S
O1320      C1333   1.263       .  A
O1321      C1334   1.303       .  A
O1321     Co1329   2.133       .  S
O1322      C1334   1.274   1_455  A
O1323      C1333   1.253       .  A
O1323     Co1326   1.952       .  S
O1324      C1331   1.268       .  A
O1324     Co1329   1.995       .  S
O1325      C1332   1.242       .  A
O1325     Co1328   1.896       .  S
Co1326     O1330   2.074       .  S
Co1329     O1330   2.071       .  S
C1331      C1390   1.515       .  S
O1335      C1343   1.274       .  A
O1335     Co1355   1.998       .  S
O1336      C1344   1.211       .  A
O1336     Co1356   1.961       .  S
O1337      C1345   1.228       .  A
O1337     Co1821   1.947       .  S
O1338      C1346   1.247       .  A
O1338     Co1358   1.936       .  S
O1339      C1345   1.251       .  A
O1339     Co1820   2.002       .  S
O1340      C1346   1.268       .  A
O1340     Co1355   2.013       .  S
O1341      C1344   1.272       .  A
O1341     Co1358   2.156       .  S
O1342      C1343   1.289   1_565  A
O1342     Co1357   2.058   1_565  S
C1344      C1721   1.517   1_545  S
C1345      C1389   1.406       .  S
O1347      C1360   1.251       .  A
O1347     Co1355   1.966       .  S
O1348      C1361   1.249       .  A
O1348     Co1356   1.903       .  S
O1349      C1362   1.220       .  A
O1349     Co1357   1.926       .  S
O1350      C1363   1.221       .  A
O1350     Co1358   1.927       .  S
O1351      C1363   1.276       .  A
O1351     Co1356   2.067       .  S
O1352      C1362   1.247       .  A
O1352     Co1355   2.039       .  S
O1353      C1360   1.272       .  A
O1353     Co1358   2.023       .  S
O1354      C1361   1.299   1_565  A
O1354     Co1357   2.110   1_565  S
Co1355     O1359   2.185       .  S
Co1356     O1803   2.002   1_545  S
Co1356     O1359   2.073       .  S
Co1357     O1801   1.947   1_545  S
Co1357     O1359   1.976       .  S
Co1358     O1359   2.125       .  S
C1360      C1374   1.483       .  S
O1364      C1372   1.213       .  A
O1364     Co1384   1.887       .  S
O1365      C1373   1.216       .  A
O1365     Co1385   1.953       .  S
O1366      C1374   1.252       .  A
O1366     Co1386   1.963       .  S
O1367      C1375   1.237       .  A
O1367     Co1387   1.920       .  S
O1368      C1374   1.276       .  A
O1368     Co1385   2.041       .  S
O1369      C1375   1.273       .  A
O1369     Co1384   2.059       .  S
O1370      C1373   1.265       .  A
O1370     Co1387   2.057       .  S
O1371      C1372   1.281       .  A
O1371     Co1386   2.143       .  S
O1376      C1389   1.231       .  A
O1376     Co1384   1.918       .  S
O1377      C1390   1.251       .  A
O1377     Co1385   1.963       .  S
O1378      C1391   1.223       .  A
O1378     Co1386   1.917       .  S
O1379      C1392   1.210       .  A
O1379     Co1387   1.948       .  S
O1380      C1392   1.273       .  A
O1380     Co1385   2.157       .  S
O1381      C1391   1.258       .  A
O1381     Co1384   2.078       .  S
O1382      C1389   1.257       .  A
O1382     Co1387   2.013       .  S
O1383      C1390   1.284       .  A
O1383     Co1386   2.094       .  S
Co1384     O1388   2.132       .  S
Co1385     O1388   2.143       .  S
Co1386     O1388   2.135       .  S
Co1387     O1388   2.113       .  S
O1393      C1401   1.268       .  A
O1393     Co1413   1.898       .  S
O1394      C1402   1.218       .  A
O1394     Co1414   1.906       .  S
O1395      C1403   1.260       .  A
O1395     Co1415   1.985       .  S
O1396      C1404   1.239       .  A
O1396     Co1416   1.889       .  S
O1397      C1403   1.264       .  A
O1397     Co1414   2.031       .  S
O1398      C1404   1.283       .  A
O1398     Co1413   2.089       .  S
O1399      C1402   1.274       .  A
O1399     Co1416   2.074       .  S
O1400      C1401   1.319       .  A
O1400     Co1415   2.122       .  S
C1401      C1768   1.481       .  S
C1402      C1517   1.475   1_554  S
C1403      C1430   1.468       .  S
O1405      C1418   1.248       .  A
O1406      C1419   1.234       .  A
O1406     Co1414   1.870       .  S
O1407      C1420   1.244       .  A
O1407     Co1415   1.950       .  S
O1408      C1421   1.254       .  A
O1408     Co1416   1.934       .  S
O1409      C1421   1.267       .  A
O1409     Co1414   2.015       .  S
O1410      C1420   1.257       .  A
O1410     Co1413   2.048       .  S
O1411      C1418   1.277       .  A
O1412      C1419   1.287       .  A
O1412     Co1415   2.090       .  S
Co1413     O1417   1.952       .  S
Co1414     O1417   2.079       .  S
Co1415     O1417   2.184       .  S
Co1416     O1417   2.099       .  S
C1418      C1450   1.520       .  S
C1419      C1479   1.445       .  S
C1420      C1807   1.498       .  S
O1422      C1430   1.258       .  A
O1422     Co1442   1.957       .  S
O1423      C1431   1.251       .  A
O1423     Co1443   1.936       .  S
O1424      C1432   1.280       .  A
O1424     Co1444   2.011       .  S
O1425      C1433   1.237       .  A
O1425     Co1445   1.872       .  S
O1426      C1432   1.284       .  A
O1426     Co1443   1.950       .  S
O1427      C1433   1.296       .  A
O1427     Co1442   2.064       .  S
O1428      C1431   1.273       .  A
O1428     Co1445   2.068       .  S
O1429      C1430   1.269       .  A
O1429     Co1444   2.031       .  S
C1431      C1565   1.475   1_554  S
C1432      C1536   1.462   1_554  S
C1433      C1508   1.440       .  S
O1434      C1447   1.186       .  A
O1434     Co1442   1.822       .  S
O1435      C1448   1.269       .  A
O1435     Co1443   1.978       .  S
O1436      C1449   1.248       .  A
O1436     Co1444   1.973       .  S
O1437      C1450   1.277       .  A
O1437     Co1445   1.969       .  S
O1438      C1450   1.293       .  A
O1438     Co1443   2.110       .  S
O1439      C1449   1.276       .  A
O1439     Co1442   2.069       .  S
O1440      C1447   1.263       .  A
O1440     Co1445   2.118       .  S
O1441      C1448   1.264       .  A
O1441     Co1444   1.895       .  S
Co1442     O1446   2.016       .  S
Co1443     O1446   2.020       .  S
Co1444     O1446   2.018       .  S
Co1445     O1446   2.157       .  S
C1447      C1836   1.499       .  S
C1449      C1778   1.476       .  S
O1451      C1459   1.289   1_655  A
O1451     Co1471   2.057       .  S
O1452      C1460   1.238       .  A
O1452     Co1472   1.922       .  S
O1453      C1461   1.260       .  A
O1453     Co1473   1.987       .  S
O1454      C1462   1.238       .  A
O1455      C1461   1.252       .  A
O1455     Co1472   1.976       .  S
O1456      C1462   1.238       .  A
O1457      C1460   1.273       .  A
O1457     Co1474   2.040       .  S
O1458      C1459   1.270   1_655  A
O1458     Co1473   1.884       .  S
C1460      C1826   1.456       .  S
C1461      C1749   1.441       .  S
C1462      C1506   1.421       .  S
O1463      C1476   1.280       .  A
O1463     Co1471   2.029       .  S
O1464      C1477   1.245       .  A
O1464     Co1472   1.894       .  S
O1465      C1478   1.245       .  A
O1465     Co1473   1.981       .  S
O1466      C1479   1.275       .  A
O1466     Co1474   1.951       .  S
O1467      C1479   1.261       .  A
O1467     Co1472   1.997       .  S
O1468      C1478   1.234       .  A
O1468     Co1471   1.928       .  S
O1469      C1476   1.285       .  A
O1469     Co1474   2.039       .  S
O1470      C1477   1.268       .  A
O1470     Co1473   2.001       .  S
Co1471     O1475   2.202       .  S
Co1472     O1475   2.058       .  S
Co1473     O1475   1.941       .  S
Co1474     O1475   2.010       .  S
C1477      C1491   1.419       .  S
C1478      C1575   1.442       .  S
O1480      C1488   1.233       .  A
O1480     Co1500   1.917       .  S
O1481      C1489   1.220       .  A
O1481     Co1501   1.905       .  S
O1482      C1490   1.234       .  A
O1482     Co1502   1.962       .  S
O1483      C1491   1.255       .  A
O1483     Co1503   1.912       .  S
O1484      C1490   1.242       .  A
O1484     Co1501   1.993       .  S
O1485      C1491   1.277       .  A
O1485     Co1500   2.015       .  S
O1486      C1489   1.253       .  A
O1486     Co1503   2.060       .  S
O1487      C1488   1.246       .  A
O1487     Co1502   1.937       .  S
C1489      C1855   1.472       .  S
C1490      C1797   1.439       .  S
O1492      C1505   1.260       .  A
O1492     Co1500   1.965       .  S
O1493      C1506   1.293       .  A
O1493     Co1501   2.002       .  S
O1494      C1507   1.266       .  A
O1494     Co1502   1.984       .  S
O1495      C1508   1.230       .  A
O1495     Co1503   1.885       .  S
O1496      C1508   1.286       .  A
O1496     Co1501   2.064       .  S
O1497      C1507   1.278       .  A
O1497     Co1500   2.059       .  S
O1498      C1505   1.266       .  A
O1498     Co1503   2.047       .  S
O1499      C1506   1.269       .  A
O1499     Co1502   1.900       .  S
Co1500     O1504   2.052       .  S
Co1501     O1504   2.173       .  S
Co1502     O1504   1.919       .  S
Co1503     O1504   2.080       .  S
C1505      C1594   1.475   1_554  S
C1507      C1604   1.497   1_554  S
O1509      C1517   1.289       .  A
O1509     Co1529   2.082       .  S
O1510      C1518   1.300       .  A
O1510     Co1530   2.145       .  S
O1511      C1519   1.276       .  A
O1511     Co1531   2.020       .  S
O1512      C1520   1.300       .  A
O1512     Co1532   2.123       .  S
O1513      C1519   1.262       .  A
O1513     Co1530   1.975       .  S
O1514      C1520   1.260       .  A
O1514     Co1529   1.958       .  S
O1515      C1518   1.259       .  A
O1515     Co1532   1.915       .  S
O1516      C1517   1.262       .  A
O1516     Co1531   1.975       .  S
C1518      C1691   1.470       .  S
C1519      C1549   1.456       .  S
C1520      C1593   1.503       .  S
O1521      C1534   1.292       .  A
O1521     Co1529   2.088       .  S
O1522      C1535   1.295       .  A
O1522     Co1530   2.117       .  S
O1523      C1536   1.258       .  A
O1523     Co1531   2.033       .  S
O1524      C1537   1.260       .  A
O1524     Co1532   2.104       .  S
O1525      C1537   1.218       .  A
O1525     Co1530   1.941       .  S
O1526      C1536   1.229       .  A
O1526     Co1529   1.967       .  S
O1527      C1534   1.254       .  A
O1527     Co1532   1.861       .  S
O1528      C1535   1.252       .  A
O1528     Co1531   1.857       .  S
Co1529     O1533   2.096       .  S
Co1530     O1533   2.089       .  S
Co1531     O1533   1.961       .  S
Co1532     O1533   1.969       .  S
C1534      C1564   1.448       .  S
C1537      C1633   1.505       .  S
O1538      C1546   1.243   1_545  A
O1538     Co1558   1.966   1_545  S
O1539      C1547   1.218       .  A
O1539     Co1559   1.945       .  S
O1540      C1548   1.226       .  A
O1540     Co1560   1.924       .  S
O1541      C1549   1.244       .  A
O1542      C1548   1.248       .  A
O1542     Co1559   2.010       .  S
O1543      C1549   1.295       .  A
O1544      C1547   1.241       .  A
O1544     Co1561   2.068       .  S
O1545      C1546   1.246       .  A
O1545     Co1560   2.003       .  S
C1547      C1720   1.454       .  S
C1548      C1622   1.422       .  S
O1550      C1563   1.264       .  A
O1550     Co1558   1.964       .  S
O1551      C1564   1.254       .  A
O1551     Co1559   1.922       .  S
O1552      C1565   1.240       .  A
O1552     Co1560   1.913       .  S
O1553      C1566   1.268       .  A
O1553     Co1561   1.986       .  S
O1554      C1566   1.269       .  A
O1554     Co1559   2.031       .  S
O1555      C1565   1.283       .  A
O1555     Co1558   2.089       .  S
O1556      C1563   1.294       .  A
O1556     Co1561   2.079       .  S
O1557      C1564   1.268       .  A
O1557     Co1560   2.030       .  S
Co1558     O1562   2.153       .  S
Co1559     O1562   2.095       .  S
Co1560     O1562   2.103       .  S
Co1561     O1562   2.035       .  S
C1566      C1681   1.464       .  S
O1567      C1575   1.247       .  A
O1567     Co1587   1.997   1_554  S
O1568      C1576   1.281       .  A
O1568     Co1588   2.083       .  S
O1569      C1577   1.275       .  A
O1569     Co1589   2.018       .  S
O1570      C1578   1.263       .  A
O1570     Co1590   1.990       .  S
O1571      C1577   1.243       .  A
O1571     Co1588   1.933       .  S
O1572      C1578   1.241       .  A
O1572     Co1587   1.931       .  S
O1573      C1576   1.242       .  A
O1573     Co1590   1.984       .  S
O1574      C1575   1.246   1_556  A
O1574     Co1589   1.964       .  S
C1576      C1652   1.505       .  S
C1577      C1621   1.427       .  S
O1579      C1592   1.250       .  A
O1579     Co1587   1.937       .  S
O1580      C1593   1.303       .  A
O1580     Co1588   2.115       .  S
O1581      C1594   1.265       .  A
O1581     Co1589   2.078       .  S
O1582      C1595   1.261       .  A
O1582     Co1590   2.047       .  S
O1583      C1595   1.279       .  A
O1583     Co1588   2.013       .  S
O1584      C1594   1.231       .  A
O1584     Co1587   1.945       .  S
O1585      C1592   1.251       .  A
O1585     Co1590   1.966       .  S
O1586      C1593   1.261       .  A
O1586     Co1589   1.967       .  S
Co1587     O1591   2.103       .  S
Co1588     O1591   2.008       .  S
Co1589     O1591   2.171       .  S
Co1590     O1591   2.138       .  S
C1592      C1606   1.411       .  S
C1595      C1710   1.476       .  S
O1596      C1604   1.263       .  A
O1596     Co1616   2.043       .  S
O1597      C1605   1.254       .  A
O1597     Co1617   2.011       .  S
O1598      C1606   1.305       .  A
O1598     Co1618   2.021       .  S
O1599      C1607   1.270       .  A
O1599     Co1619   2.017       .  S
O1600      C1606   1.259       .  A
O1600     Co1617   1.845       .  S
O1601      C1607   1.255       .  A
O1601     Co1616   1.967       .  S
O1602      C1605   1.246       .  A
O1602     Co1619   1.979       .  S
O1603      C1604   1.243       .  A
O1603     Co1618   1.954       .  S
C1605      C1662   1.465       .  S
O1608      C1621   1.275       .  A
O1609      C1622   1.273       .  A
O1609     Co1617   2.048       .  S
O1610      C1623   1.294       .  A
O1610     Co1618   2.137       .  S
O1611      C1624   1.267       .  A
O1611     Co1619   2.034       .  S
O1612      C1624   1.283       .  A
O1612     Co1617   2.051       .  S
O1613      C1623   1.262       .  A
O1613     Co1616   1.970       .  S
O1614      C1621   1.251       .  A
O1615      C1622   1.237       .  A
O1615     Co1618   1.914       .  S
Co1616     O1620   2.061       .  S
Co1617     O1620   2.011       .  S
Co1618     O1620   2.047       .  S
Co1619     O1620   2.082       .  S
C1624      C1739   1.496       .  S
O1625      C1633   1.284       .  A
O1626      C1634   1.293       .  A
O1626     Co1646   2.165       .  S
O1627      C1635   1.276       .  A
O1627     Co1647   2.047       .  S
O1628      C1636   1.281       .  A
O1628     Co1648   2.078       .  S
O1629      C1635   1.264       .  A
O1629     Co1646   1.965       .  S
O1630      C1636   1.243       .  A
O1630     Co1645   1.941       .  S
O1631      C1634   1.262       .  A
O1632      C1633   1.241       .  A
O1632     Co1647   1.969       .  S
C1634      C1779   1.524       .  S
C1635      C1694   1.489       .  S
O1637      C1650   1.279       .  A
O1637     Co1645   2.069       .  S
O1638      C1651   1.274       .  A
O1638     Co1646   2.025       .  S
O1639      C1652   1.278       .  A
O1640      C1653   1.283       .  A
O1640     Co1648   2.143       .  S
O1641      C1653   1.222       .  A
O1642      C1652   1.227       .  A
O1642     Co1645   1.967       .  S
O1643      C1650   1.256       .  A
O1643     Co1648   1.885       .  S
O1644      C1651   1.240       .  A
O1644     Co1647   1.923       .  S
Co1645     O1649   2.172   1_655  S
Co1648     O1649   1.979   1_655  S
C1650      C1709   1.462       .  S
C1653      C1750   1.530       .  S
O1654      C1662   1.255       .  A
O1655      C1663   1.264       .  A
O1655     Co1675   2.121       .  S
O1656      C1664   1.265       .  A
O1656     Co1676   2.030       .  S
O1657      C1665   1.282       .  A
O1657     Co1677   2.083       .  S
O1658      C1664   1.258       .  A
O1658     Co1675   1.976       .  S
O1659      C1665   1.254       .  A
O1659     Co1674   1.880       .  S
O1660      C1663   1.219       .  A
O1661      C1662   1.237       .  A
O1661     Co1676   1.967       .  S
C1663      C1798   1.506       .  S
C1664      C1738   1.484       .  S
O1666      C1679   1.286       .  A
O1666     Co1674   2.078       .  S
O1667      C1680   1.269       .  A
O1668      C1681   1.266       .  A
O1669      C1682   1.289       .  A
O1669     Co1677   2.139       .  S
O1670      C1682   1.218       .  A
O1671      C1681   1.274       .  A
O1671     Co1674   2.000       .  S
O1672      C1679   1.268       .  A
O1672     Co1677   2.011       .  S
O1673      C1680   1.250   1_455  A
Co1674     O1678   2.035       .  S
Co1677     O1678   2.151       .  S
C1679      C1723   1.504       .  S
O1683      C1691   1.278       .  A
O1683     Co1703   1.901       .  S
O1684      C1692   1.223       .  A
O1684     Co1704   1.927       .  S
O1685      C1693   1.272       .  A
O1685     Co1705   2.037       .  S
O1686      C1694   1.248       .  A
O1686     Co1706   1.935       .  S
O1687      C1693   1.256       .  A
O1687     Co1704   1.985       .  S
O1688      C1694   1.275       .  A
O1688     Co1703   2.091       .  S
O1689      C1692   1.279       .  A
O1689     Co1706   2.083       .  S
O1690      C1691   1.318       .  A
O1690     Co1705   2.130       .  S
C1692      C1837   1.456       .  S
C1693      C1737   1.484       .  S
O1695      C1708   1.254       .  A
O1695     Co1703   1.971       .  S
O1696      C1709   1.247       .  A
O1696     Co1704   1.889       .  S
O1697      C1710   1.273       .  A
O1697     Co1705   1.924       .  S
O1698      C1711   1.213       .  A
O1698     Co1706   1.953       .  S
O1699      C1711   1.267       .  A
O1699     Co1704   2.066       .  S
O1700      C1710   1.300       .  A
O1700     Co1703   2.100       .  S
O1701      C1708   1.267       .  A
O1701     Co1706   2.015       .  S
O1702      C1709   1.287       .  A
O1702     Co1705   2.111       .  S
Co1703     O1707   2.026       .  S
Co1704     O1707   2.075       .  S
Co1705     O1707   2.005       .  S
Co1706     O1707   2.044       .  S
C1708      C1722   1.467       .  S
C1711      C1827   1.452       .  S
O1712      C1720   1.243       .  A
O1712     Co1732   1.960       .  S
O1713      C1721   1.269       .  A
O1713     Co1733   2.000       .  S
O1714      C1722   1.238       .  A
O1715      C1723   1.243       .  A
O1715     Co1735   1.931       .  S
O1716      C1722   1.301       .  A
O1717      C1723   1.285       .  A
O1717     Co1732   2.118       .  S
O1718      C1721   1.276       .  A
O1718     Co1735   2.064       .  S
O1719      C1720   1.234       .  A
O1719     Co1734   1.999       .  S
O1724      C1737   1.252       .  A
O1724     Co1732   1.917       .  S
O1725      C1738   1.233       .  A
O1725     Co1733   1.939       .  S
O1726      C1739   1.290       .  A
O1726     Co1734   1.919       .  S
O1727      C1740   1.270       .  A
O1727     Co1735   2.015       .  S
O1728      C1740   1.263       .  A
O1728     Co1733   2.041       .  S
O1729      C1739   1.315       .  A
O1729     Co1732   2.104       .  S
O1730      C1737   1.300       .  A
O1730     Co1735   2.127       .  S
O1731      C1738   1.256       .  A
O1731     Co1734   2.068       .  S
Co1732     O1736   2.180       .  S
Co1733     O1736   2.060       .  S
Co1734     O1736   1.971       .  S
Co1735     O1736   2.046       .  S
C1740      C1856   1.510       .  S
O1741      C1749   1.248       .  A
O1742      C1750   1.273       .  A
O1742     Co1762   2.117       .  S
O1743      C1751   1.265       .  A
O1743     Co1763   2.041       .  S
O1744      C1752   1.277       .  A
O1744     Co1764   2.070       .  S
O1745      C1751   1.269       .  A
O1745     Co1762   1.962       .  S
O1746      C1752   1.245       .  A
O1746     Co1761   1.858       .  S
O1747      C1750   1.224       .  A
O1748      C1749   1.240       .  A
O1748     Co1763   1.949       .  S
C1751      C1825   1.482       .  S
O1753      C1766   1.270       .  A
O1753     Co1761   1.995       .  S
O1754      C1767   1.262       .  A
O1755      C1768   1.269       .  A
O1756      C1769   1.290       .  A
O1756     Co1764   2.117       .  S
O1757      C1769   1.232       .  A
O1758      C1768   1.274       .  A
O1758     Co1761   2.019       .  S
O1759      C1766   1.256       .  A
O1759     Co1764   1.981       .  S
O1760      C1767   1.251   1_455  A
Co1762     O1765   2.123       .  S
Co1763     O1765   2.129       .  S
C1766      C1810   1.450       .  S
O1770      C1778   1.274       .  A
O1771      C1779   1.304       .  A
O1771     Co1791   2.147       .  S
O1772      C1780   1.256       .  A
O1772     Co1792   2.002       .  S
O1773      C1781   1.266       .  A
O1773     Co1793   2.049       .  S
O1774      C1780   1.260       .  A
O1774     Co1791   1.964       .  S
O1775      C1781   1.238       .  A
O1775     Co1790   1.884       .  S
O1776      C1779   1.279       .  A
O1777      C1778   1.258       .  A
O1777     Co1792   1.980       .  S
C1780      C1839   1.464       .  S
O1782      C1795   1.272       .  A
O1782     Co1790   2.047       .  S
O1783      C1796   1.270       .  A
O1783     Co1791   2.067       .  S
O1784      C1797   1.263       .  A
O1785      C1798   1.303       .  A
O1785     Co1793   2.133       .  S
O1786      C1798   1.274   1_455  A
O1787      C1797   1.253       .  A
O1787     Co1790   1.952       .  S
O1788      C1795   1.268       .  A
O1788     Co1793   1.995       .  S
O1789      C1796   1.242       .  A
O1789     Co1792   1.896       .  S
Co1790     O1794   2.074       .  S
Co1793     O1794   2.071       .  S
C1795      C1854   1.515       .  S
O1799      C1807   1.274       .  A
O1799     Co1819   1.998       .  S
O1800      C1808   1.211       .  A
O1800     Co1820   1.961       .  S
O1801      C1809   1.228       .  A
O1802      C1810   1.247       .  A
O1802     Co1822   1.936       .  S
O1803      C1809   1.251       .  A
O1804      C1810   1.268       .  A
O1804     Co1819   2.013       .  S
O1805      C1808   1.272       .  A
O1805     Co1822   2.156       .  S
O1806      C1807   1.289       .  A
O1806     Co1821   2.058       .  S
C1809      C1853   1.406       .  S
O1811      C1824   1.251       .  A
O1811     Co1819   1.966       .  S
O1812      C1825   1.249       .  A
O1812     Co1820   1.903       .  S
O1813      C1826   1.220       .  A
O1813     Co1821   1.926       .  S
O1814      C1827   1.221       .  A
O1814     Co1822   1.927       .  S
O1815      C1827   1.276       .  A
O1815     Co1820   2.067       .  S
O1816      C1826   1.247       .  A
O1816     Co1819   2.039       .  S
O1817      C1824   1.272       .  A
O1817     Co1822   2.023       .  S
O1818      C1825   1.299       .  A
O1818     Co1821   2.110       .  S
Co1819     O1823   2.185       .  S
Co1820     O1823   2.073       .  S
Co1821     O1823   1.976       .  S
Co1822     O1823   2.125       .  S
C1824      C1838   1.483       .  S
O1828      C1836   1.213       .  A
O1828     Co1848   1.887       .  S
O1829      C1837   1.216       .  A
O1829     Co1849   1.953       .  S
O1830      C1838   1.252       .  A
O1830     Co1850   1.963       .  S
O1831      C1839   1.237       .  A
O1831     Co1851   1.920       .  S
O1832      C1838   1.276       .  A
O1832     Co1849   2.041       .  S
O1833      C1839   1.273       .  A
O1833     Co1848   2.059       .  S
O1834      C1837   1.265       .  A
O1834     Co1851   2.057       .  S
O1835      C1836   1.281       .  A
O1835     Co1850   2.143       .  S
O1840      C1853   1.231       .  A
O1840     Co1848   1.918       .  S
O1841      C1854   1.251       .  A
O1841     Co1849   1.963       .  S
O1842      C1855   1.223       .  A
O1842     Co1850   1.917       .  S
O1843      C1856   1.210       .  A
O1843     Co1851   1.948       .  S
O1844      C1856   1.273       .  A
O1844     Co1849   2.157       .  S
O1845      C1855   1.258       .  A
O1845     Co1848   2.078       .  S
O1846      C1853   1.257       .  A
O1846     Co1851   2.013       .  S
O1847      C1854   1.284       .  A
O1847     Co1850   2.094       .  S
Co1848     O1852   2.132       .  S
Co1849     O1852   2.143       .  S
Co1850     O1852   2.135       .  S
Co1851     O1852   2.113       .  S
