geometry optimzed in LAMMPS
_audit_creation_date              2020-11-30 
_audit_creation_method            'lammps2cif' 
_symmetry_space_group_name_H-M    'P1' 
_symmetry_Int_Tables_number       1 
_symmetry_cell_setting            triclinic 
loop_ 
_symmetry_equiv_pos_as_xyz 
  x,y,z 
_cell_length_a                    28.27309084280955 
_cell_length_b                    28.242925015613846 
_cell_length_c                    47.46198118003163 
_cell_angle_alpha                 90.14858775581752 
_cell_angle_beta                  89.63028970003285 
_cell_angle_gamma                 89.83201109722513 
loop_ 
_atom_site_label 
_atom_site_type_symbol 
_atom_site_fract_x 
_atom_site_fract_y 
_atom_site_fract_z 
_atom_site_charge 
C1          C  0.25335454  0.49804468  0.25054083    -0.00040
C2          C  0.47307722  0.24794243  0.99905638     0.03010
C3          C  0.02010641  0.25520394  0.00015402     0.03010
C4          C  0.25552274  0.50467851  0.74929730    -0.00040
C5          C  0.99620945  0.25120434  0.75081951    -0.00040
C6          C  0.25658924  0.47358070  0.99865134     0.03010
C7          C  0.24964742  0.02085287  0.99954048     0.03010
C8          C  0.24751298  0.39491588  0.92599506     0.44900
N9          N  0.26716931  0.35056829  0.89109998     0.03790
C10         C  0.12363859  0.19564444  0.81692980    -0.04080
H11         H  0.12112052  0.16909179  0.92404412     0.09280
C12         C  0.29685168  0.12798268  0.91721207    -0.04440
Co13       Co  0.18300229  0.30573948  0.86333156     0.74180
N14         N  0.15336977  0.22135303  0.89686945    -0.23610
Co15       Co  0.19166716  0.18387133  0.86637657     0.74070
C16         C  0.25528925  0.10844646  0.93124902     0.45000
N17         N  0.34898922  0.23357506  0.89319663     0.03410
N18         N  0.23266243  0.15163339  0.89701043     0.03510
N19         N  0.11680102  0.27524756  0.81408486    -0.44460
H20         H  0.16832996  0.37869521  0.92035267     0.09270
N21         N  0.15002581  0.26796046  0.89571804     0.03800
N22         N  0.23049478  0.14883948  0.83518680     0.03540
C23         C  0.25039851  0.11114256  0.79784124     0.45140
N24         N  0.34679601  0.28029961  0.89173582    -0.23070
C25         C  0.19625354  0.37136022  0.81262081    -0.03990
N26         N  0.28468208  0.37869057  0.91085319    -0.44180
N27         N  0.21300945  0.12502353  0.81356474    -0.44400
C28         C  0.23502898  0.39505822  0.79844382     0.44920
N29         N  0.14750991  0.26265759  0.83386228     0.03790
N30         N  0.34495963  0.27496736  0.82986039    -0.23090
N31         N  0.22052613  0.34713122  0.89247388    -0.23590
N32         N  0.34685224  0.22832293  0.83168876     0.03430
H33         H  0.38079392  0.32448887  0.80232435     0.09320
H34         H  0.32955741  0.12396160  0.80527293     0.09350
N35         N  0.15151144  0.21627762  0.83587791    -0.23630
N36         N  0.27924038  0.15429099  0.89618301    -0.23250
N37         N  0.26319412  0.34691078  0.82940632     0.03790
C38         C  0.10588528  0.24848901  0.93053852     0.45190
C39         C  0.37349558  0.29837916  0.91255870    -0.04500
N40         N  0.27707280  0.15131646  0.83447780    -0.23250
H41         H  0.33393769  0.12207901  0.92145416     0.09340
N42         N  0.12168701  0.28569137  0.91548008    -0.44470
H43         H  0.37881746  0.33560582  0.91684091     0.09320
C44         C  0.39295091  0.24389247  0.79682423     0.45020
C45         C  0.20487694  0.37407916  0.91403131    -0.04000
Co46       Co  0.30636633  0.31414836  0.86026626     0.73820
N47         N  0.37610559  0.21831259  0.91400461    -0.44180
C48         C  0.10131158  0.23438939  0.80218300     0.45290
N49         N  0.27572561  0.37889527  0.81018480    -0.44180
Co50       Co  0.31369739  0.19128913  0.86403024     0.73890
C51         C  0.29300729  0.12759863  0.81177329    -0.04500
C52         C  0.12661097  0.20573925  0.91837049    -0.04070
N53         N  0.21669204  0.34278563  0.83135618    -0.23590
N54         N  0.21680524  0.12428554  0.91760991    -0.44360
H55         H  0.11806802  0.15795656  0.81467005     0.09300
C56         C  0.37342698  0.28835246  0.80838295    -0.04480
Cl57       Cl  0.24880145  0.24908130  0.86356159    -0.47480
C58         C  0.39283556  0.25709742  0.92714408     0.45050
H59         H  0.15864728  0.37781180  0.81092575     0.09260
N60         N  0.37486379  0.20870173  0.81250494    -0.44190
C61         C  0.10160019  0.26916318  0.19393475     0.44900
N62         N  0.15259286  0.28145668  0.16182277     0.03790
C63         C  0.28247515  0.11975011  0.08316121    -0.04090
H64         H  0.31023810  0.10879661  0.19061385     0.09280
C65         C  0.37018713  0.27749421  0.18777436    -0.04440
Co66       Co  0.18347953  0.19216143  0.13267796     0.74180
N67         N  0.26294646  0.14975205  0.16464580    -0.23610
Co68       Co  0.30498875  0.18298843  0.13419823     0.74070
C69         C  0.38074948  0.23283877  0.20210243     0.45000
N70         N  0.27847783  0.34583125  0.16304347     0.03410
N71         N  0.34081835  0.21823819  0.16528174     0.03510
N72         N  0.20237905  0.12492615  0.08211664    -0.44460
H73         H  0.10477062  0.18813863  0.18695750     0.09270
N74         N  0.21647386  0.15361907  0.16405968     0.03800
N75         N  0.34593626  0.21800872  0.10364851     0.03540
C76         C  0.39154000  0.23574913  0.06925971     0.45140
N77         N  0.23202259  0.35021584  0.16275325    -0.23070
C78         C  0.12324459  0.21672359  0.08098601    -0.03990
N79         N  0.12463375  0.30334150  0.18004387    -0.44180
N80         N  0.37135236  0.19893155  0.08288273    -0.44400
C81         C  0.10808120  0.25982061  0.06729865     0.44920
N82         N  0.22029003  0.15137868  0.10257804     0.03790
N83         N  0.23352933  0.34693894  0.10165333    -0.23090
N84         N  0.14866053  0.23487615  0.16240499    -0.23590
N85         N  0.28013555  0.34427702  0.10183219     0.03420
H86         H  0.18343164  0.38335713  0.07533383     0.09310
H87         H  0.38571855  0.31535772  0.07813377     0.09350
N88         N  0.26687806  0.14873639  0.10348456    -0.23630
N89         N  0.34497236  0.26475603  0.16520537    -0.23250
N90         N  0.15420409  0.27831439  0.10096376     0.03790
C91         C  0.22958753  0.10588608  0.19808187     0.45190
C92         C  0.21945285  0.38206314  0.18262002    -0.04500
N93         N  0.34862745  0.26465081  0.10391972    -0.23250
H94         H  0.37968095  0.31332623  0.19344301     0.09330
N95         N  0.19513357  0.12731033  0.18331959    -0.44470
H96         H  0.18395999  0.39495581  0.18656227     0.09320
C97         C  0.26317793  0.38842796  0.06699196     0.45020
C98         C  0.11716873  0.22351095  0.18241741    -0.03990
Co99       Co  0.19245002  0.31489462  0.13181601     0.73820
N100        N  0.29905702  0.37371083  0.18163090    -0.44180
C101        C  0.23988590  0.10422101  0.06922745     0.45290
N102        N  0.12811677  0.29689296  0.08063296    -0.44170
Co103      Co  0.31398896  0.30548381  0.13349691     0.73890
C104        C  0.37675732  0.27906155  0.08297511    -0.04500
C105        C  0.27476360  0.12040260  0.18568100    -0.04070
N106        N  0.15157680  0.23163197  0.10157727    -0.23590
N107        N  0.36172117  0.19778324  0.18688807    -0.44360
H108        H  0.31894892  0.11001695  0.07920158     0.09290
C109        C  0.21956242  0.37413692  0.08034931    -0.04480
Cl110      Cl  0.24864229  0.24887367  0.13298667    -0.47480
C111        C  0.26433029  0.39732667  0.19505221     0.45050
H112        H  0.11318580  0.18042558  0.07695045     0.09260
N113        N  0.29972630  0.36914086  0.08117004    -0.44190
C114        C  0.14413832  0.98234558  0.69966594     0.44900
N115        N  0.09972964  0.47444449  0.66687843     0.03790
C116        C  0.45498287  0.12981484  0.58472030    -0.04090
H117        H  0.40781810  0.14071457  0.68764162     0.09280
C118        C  0.37971496  0.46151702  0.68654145    -0.04440
Co119      Co  0.06435913  0.05754304  0.63692334     0.74180
N120        N  0.46437851  0.10219440  0.66739145    -0.23610
Co121      Co  0.42979729  0.06554931  0.63571489     0.74070
C122        C  0.35979757  0.00403799  0.70401243     0.45000
N123        N  0.47333569  0.40437998  0.66208292     0.03410
N124        N  0.39358951  0.02596892  0.66588009     0.03510
N125        N  0.04451848  0.12455500  0.58737640    -0.44460
H126        H  0.13741320  0.06321271  0.69413279     0.09270
N127        N  0.02878230  0.09291484  0.66885012     0.03800
N128        N  0.39531718  0.02820666  0.60364803     0.03540
C129        C  0.35328271  0.00844891  0.56820219     0.45140
N130        N  0.02429511  0.40332920  0.66843627    -0.23070
C131        C  0.12679283  0.03805621  0.58386695    -0.03990
N132        N  0.12733266  0.45394597  0.68557489    -0.44180
N133        N  0.36958599  0.04601404  0.58287346    -0.44400
C134        C  0.14301287  0.99609448  0.56882564     0.44920
N135        N  0.02653706  0.09781886  0.60768810     0.03790
N136        N  0.02317075  0.40211652  0.60691278    -0.23090
N137        N  0.09981332  0.01563511  0.66646789    -0.23580
N138        N  0.47717023  0.40745098  0.60105027     0.03420
H139        H  0.07493832  0.36722624  0.58038654     0.09320
H140        H  0.36977296  0.42996530  0.57526819     0.09350
N141        N  0.46941495  0.10341289  0.60645116    -0.23630
N142        N  0.40181651  0.47864673  0.66373657    -0.23250
N143        N  0.09937705  0.47579621  0.60542662     0.03790
C144        C  0.48460048  0.15300372  0.70071121     0.45190
C145        C  0.04024170  0.37914094  0.69073329    -0.04500
N146        N  0.40265528  0.48175628  0.60225739    -0.23250
H147        H  0.37464771  0.42459791  0.69162215     0.09340
N148        N  0.04927650  0.12086989  0.68747508    -0.44470
H149        H  0.07691301  0.37264214  0.69580110     0.09320
C150        C  0.49879944  0.36286991  0.56697324     0.45020
C151        C  0.12785950  0.02755108  0.68812327    -0.03990
Co152      Co  0.06224337  0.43817604  0.63670537     0.73820
N153        N  0.45305663  0.37811416  0.68164120    -0.44190
C154        C  0.49833756  0.14826649  0.57247766     0.45290
N155        N  0.12587770  0.45840142  0.58458279    -0.44170
Co156      Co  0.43792557  0.44250201  0.63208677     0.73890
C157        C  0.37637605  0.46653431  0.58076031    -0.04500
C158        C  0.44503877  0.13212042  0.68602157    -0.04070
N159        N  0.09961952  0.02122835  0.60480393    -0.23590
N160        N  0.37219857  0.04242921  0.68886107    -0.44350
H161        H  0.41870163  0.13557182  0.57848937     0.09290
C162        C  0.03840441  0.37457762  0.58574532    -0.04480
Cl163      Cl  0.49196790  0.00518354  0.63614206    -0.47480
C164        C  0.48829951  0.35905939  0.69656571     0.45050
H165        H  0.13465712  0.07493203  0.57999543     0.09260
N166        N  0.46054962  0.38080813  0.58036266    -0.44190
C167        C  0.51219374  0.35766005  0.30102104     0.44900
N168        N  0.01450108  0.39531624  0.33846499     0.03790
C169        C  0.37534554  0.04567185  0.41306829    -0.04090
H170        H  0.38159750  0.08659970  0.30305658     0.09280
C171        C  0.03467714  0.12526410  0.31548163    -0.04440
Co172      Co  0.44081881  0.44531180  0.36283870     0.74180
N173        N  0.40823080  0.03148490  0.33024063    -0.23610
Co174      Co  0.44385692  0.06588210  0.36284306     0.74070
C175        C  0.51409575  0.14394487  0.30061030     0.45000
N176        N  0.09097025  0.01376251  0.33142371     0.03410
N177        N  0.48709467  0.10104762  0.33398529     0.03510
N178        N  0.37417956  0.46797937  0.41302634    -0.44460
H179        H  0.43165098  0.37074228  0.30587858     0.09270
N180        N  0.40850290  0.48761631  0.33184991     0.03800
N181        N  0.48084944  0.09866442  0.39544838     0.03540
C182        C  0.50023873  0.14066271  0.43096686     0.45140
N183        N  0.09634791  0.46209046  0.33589148    -0.23070
C184        C  0.45455486  0.37743990  0.41409309    -0.03990
N185        N  0.02784053  0.36385394  0.31910379    -0.44180
N186        N  0.46302739  0.12621841  0.41555594    -0.44400
C187        C  0.49497159  0.35702592  0.42858755     0.44920
N188        N  0.40347621  0.48459920  0.39345145     0.03790
N189        N  0.09630319  0.46896421  0.39665406    -0.23090
N190        N  0.48094073  0.40729752  0.33285201    -0.23590
N191        N  0.10022249  0.01220678  0.39269294     0.03420
H192        H  0.12569649  0.41652162  0.42465030     0.09320
H193        H  0.09319270  0.12566819  0.42046472     0.09350
N194        N  0.40238976  0.02901391  0.39192850    -0.23630
N195        N  0.02304392  0.09710102  0.33726464    -0.23250
N196        N  0.01628871  0.40173638  0.39992895     0.03790
C197        C  0.36529886  0.00842137  0.29376480     0.45190
C198        C  0.12552349  0.44079590  0.31756812    -0.04500
N199        N  0.03440191  0.09405064  0.39839049    -0.23240
H200        H  0.07001393  0.13080796  0.30729140     0.09340
N201        N  0.37632104  0.47457282  0.31302641    -0.44470
H202        H  0.13139594  0.40303527  0.31585639     0.09320
C203        C  0.14473393  0.98810590  0.42598199     0.45020
C204        C  0.46772006  0.37854815  0.31171912    -0.03990
Co205      Co  0.05639285  0.43134888  0.36762836     0.73880
N206        N  0.11913508  0.02760909  0.31050090    -0.44180
C207        C  0.35503893  0.00363135  0.42588813     0.45290
N208        N  0.03236727  0.37380861  0.42009782    -0.44180
Co209      Co  0.06327426  0.05502874  0.36466927     0.73890
C210        C  0.05552453  0.12037295  0.41828162    -0.04500
C211        C  0.38527029  0.04942630  0.30801664    -0.04070
N212        N  0.47372323  0.40502125  0.39407886    -0.23590
N213        N  0.47373677  0.12939508  0.31323050    -0.44350
H214        H  0.37055975  0.08253067  0.41865769     0.09300
C215        C  0.12185873  0.45309564  0.41835311    -0.04480
Cl216      Cl  0.50138045  0.00047082  0.36356543    -0.47480
C217        C  0.13017971  0.98795097  0.29568384     0.45050
H218        H  0.41716628  0.37181678  0.41762998     0.09260
N219        N  0.12965137  0.02708562  0.41241593    -0.44190
C220        C  0.00035697  0.27327618  0.50334136     0.03010
C221        C  0.00937416  0.22617015  0.50355244     0.03010
C222        C  0.27465713  0.50482399  0.49861848     0.03010
C223        C  0.22691991  0.49999664  0.49971330     0.03010
C224        C  0.00566079  0.25149472  0.25021236    -0.00040
C225        C  0.51989539  0.31579352  0.28254637    -0.13990
C226        C  0.49231014  0.29437636  0.26418983    -0.29160
H227        H  0.48689767  0.32990447  0.26933605     0.15030
H228        H  0.05018121  0.30941370  0.27039048     0.15610
C229        C  0.51852633  0.17803191  0.27752471    -0.13990
C230        C  0.48335374  0.20726204  0.26964868    -0.29160
H231        H  0.01250981  0.17225767  0.27390100     0.15030
H232        H  0.44989560  0.20604600  0.28104075     0.15610
C233        C  0.01555943  0.19912191  0.47791261    -0.10830
C234        C  0.49779406  0.17231680  0.45458209    -0.12390
C235        C  0.49440524  0.32500237  0.45207971    -0.10830
C236        C  0.99770227  0.30032528  0.47760597    -0.12390
C237        C  0.19901232  0.49866448  0.47435232    -0.10830
C238        C  0.17463807  0.98892401  0.45041183    -0.12390
C239        C  0.32446039  0.00198941  0.45023995    -0.10830
C240        C  0.30097560  0.50465774  0.47216065    -0.12390
C241        C  0.17328055  0.99474396  0.54430188    -0.10830
C242        C  0.20079323  0.49669981  0.52614838    -0.12390
C243        C  0.32326933  0.01037236  0.54386271    -0.10830
C244        C  0.30237035  0.50950609  0.52394276    -0.12390
C245        C  0.01068775  0.19952905  0.52951570    -0.10830
C246        C  0.50199788  0.17775551  0.54788508    -0.12390
C247        C  0.49727743  0.32981193  0.54406379    -0.10830
C248        C  0.99474724  0.30007027  0.52907480    -0.12390
C249        C  0.06272981  0.27870095  0.21350843    -0.13990
C250        C  0.04665680  0.24448882  0.23021672    -0.29160
H251        H  0.04755848  0.31405955  0.21450308     0.15030
H252        H  0.06407309  0.21004575  0.22926352     0.15610
C253        C  0.41431898  0.22418283  0.22483038    -0.13990
C254        C  0.45040893  0.25390973  0.22839731    -0.29160
H255        H  0.41205680  0.19111817  0.23632985     0.15030
H256        H  0.45298411  0.28452568  0.21455538     0.15610
C257        C  0.24230089  0.04718587  0.02532514    -0.10830
C258        C  0.23825878  0.07237999  0.04571481    -0.12390
C259        C  0.26631536  0.41914736  0.04328280    -0.10830
C260        C  0.26263735  0.44456541  0.02318313    -0.12390
C261        C  0.25172633  0.04880707  0.97403504    -0.10830
C262        C  0.25388785  0.07529130  0.95415858    -0.12390
C263        C  0.25458840  0.44892471  0.97169463    -0.10830
C264        C  0.25124504  0.42522823  0.95047761    -0.12390
C265        C  0.51180913  0.21126159  0.73661490    -0.13990
C266        C  0.48070748  0.19757344  0.71698317    -0.29160
H267        H  0.54157110  0.18808255  0.74115008     0.15030
H268        H  0.05376484  0.20605908  0.71357390     0.15610
C269        C  0.48013225  0.32622700  0.71973309    -0.13990
C270        C  0.51407475  0.29647953  0.72805123    -0.29160
H271        H  0.44479749  0.32494820  0.72873679     0.15030
H272        H  0.98296159  0.27375930  0.70592808     0.15610
C273        C  0.04441111  0.25744108  0.76488426    -0.13990
C274        C  0.05777420  0.22851565  0.78577268    -0.29160
H275        H  0.06764426  0.28623124  0.75865856     0.15030
H276        H  0.03574584  0.19824874  0.79095375     0.15610
C277        C  0.46321066  0.26846811  0.76893028    -0.13990
C278        C  0.43124169  0.23532493  0.77591153    -0.29160
H279        H  0.45932711  0.30343227  0.77833649     0.15030
H280        H  0.43575369  0.19923744  0.76851119     0.15610
C281        C  0.28407847  0.00973022  0.72712243    -0.13990
C282        C  0.33079028  0.00434165  0.72963824    -0.29160
H283        H  0.27056999  0.01930598  0.70643741     0.15030
H284        H  0.35310401  0.49814434  0.74854371     0.15610
C285        C  0.18556661  0.97401752  0.71752563    -0.13990
C286        C  0.19952993  0.00415089  0.73779536    -0.29160
H287        H  0.20698585  0.44570391  0.71540013     0.15030
H288        H  0.17670973  0.03370010  0.74356310     0.15610
C289        C  0.25563080  0.03484117  0.77466621    -0.13990
C290        C  0.24721258  0.08134774  0.77258981    -0.29160
H291        H  0.26673646  0.02133330  0.79507190     0.15030
H292        H  0.23438822  0.09662469  0.75310633     0.15610
C293        C  0.26139092  0.45693286  0.76446716    -0.13990
C294        C  0.22899283  0.43960971  0.78246000    -0.29160
H295        H  0.29309799  0.43598256  0.76058790     0.15030
H296        H  0.19548468  0.45795322  0.78502610     0.15610
C297        C  0.04793430  0.26032971  0.02529986    -0.10830
C298        C  0.07464250  0.26264941  0.04487741    -0.12390
C299        C  0.44509145  0.23828072  0.02389248    -0.10830
C300        C  0.42088545  0.23329626  0.04462138    -0.12390
C301        C  0.04676686  0.25387765  0.97393465    -0.10830
C302        C  0.07276703  0.25165991  0.95365848    -0.12390
C303        C  0.44743204  0.25248003  0.97257862    -0.10830
C304        C  0.42331738  0.25577161  0.95158698    -0.12390
C305        C  0.28747075  0.99440367  0.27264888    -0.13990
C306        C  0.33242914  0.00955607  0.26977680    -0.29160
H307        H  0.27831251  0.97656589  0.29224784     0.15030
H308        H  0.30069114  0.55616397  0.28468239     0.15610
C309        C  0.16693826  0.98275364  0.27377410    -0.13990
C310        C  0.20320134  0.01315676  0.27104529    -0.29160
H311        H  0.20784583  0.43796798  0.28487319     0.15030
H312        H  0.20389289  0.04418053  0.28467322     0.15610
C313        C  0.25413866  0.04949379  0.23484799    -0.13990
C314        C  0.22068574  0.06638019  0.21753024    -0.29160
H315        H  0.28690261  0.06905827  0.23605919     0.15030
H316        H  0.18605037  0.04987866  0.21701111     0.15610
C317        C  0.24174150  0.45617466  0.23136873    -0.13990
C318        C  0.27419201  0.43731906  0.21396912    -0.29160
H319        H  0.20631506  0.44127817  0.23163247     0.15030
H320        H  0.31004149  0.45107404  0.21407521     0.15610
C321        C  0.24661256  0.00453672  0.25218644    -0.00040
C322        C  0.47217948  0.75230190  0.99863656     0.03010
C323        C  0.02020960  0.75766649  0.00354115     0.03010
C324        C  0.24883006  0.99972472  0.75065140    -0.00040
C325        C  0.00691994  0.75577580  0.75241940    -0.00040
C326        C  0.25571210  0.97321649  0.99938027     0.03010
C327        C  0.25218529  0.52118033  0.00096400     0.03010
C328        C  0.25341497  0.89576989  0.92663317     0.44900
N329        N  0.27081195  0.85170041  0.89134753     0.03790
C330        C  0.11849408  0.69494539  0.82607880    -0.04080
H331        H  0.12506327  0.67475300  0.93154061     0.09280
C332        C  0.30085137  0.63035062  0.92005428    -0.04440
Co333      Co  0.18455849  0.80654107  0.86690209     0.74180
N334        N  0.15706077  0.72529448  0.90322833    -0.23610
Co335      Co  0.19191118  0.68542345  0.87278488     0.74070
C336        C  0.26017833  0.61309198  0.93590867     0.45000
N337        N  0.35163977  0.73417778  0.89251391     0.03410
N338        N  0.23534411  0.65555915  0.90229773     0.03510
N339        N  0.11458202  0.77474180  0.82115537    -0.44460
H340        H  0.17403569  0.87986696  0.92296019     0.09270
N341        N  0.15385652  0.77173232  0.90103356     0.03800
N342        N  0.22681539  0.64656262  0.84197955     0.03540
C343        C  0.24176697  0.59649374  0.80940478     0.45140
N344        N  0.34931372  0.78081944  0.89066688    -0.23070
C345        C  0.19449329  0.86685793  0.81360831    -0.03990
N346        N  0.28977685  0.87942192  0.91082052    -0.44180
N347        N  0.20677905  0.61533948  0.82512969    -0.44400
C348        C  0.23249914  0.88851589  0.79761801     0.44920
N349        N  0.14652710  0.76230799  0.84005277     0.03790
N350        N  0.34272491  0.77277652  0.82947901    -0.23090
N351        N  0.22432279  0.84874002  0.89381077    -0.23590
N352        N  0.34391778  0.72610408  0.83132100     0.03430
H353        H  0.37855420  0.82207216  0.80193299     0.09320
H354        H  0.32197809  0.61089737  0.81153672     0.09350
N355        N  0.14927094  0.71601139  0.84314486    -0.23630
N356        N  0.28178420  0.65654731  0.89948660    -0.23250
N357        N  0.26223157  0.84420433  0.82986705     0.03790
C358        C  0.11103962  0.75452693  0.93672036     0.45190
C359        C  0.37645449  0.79964176  0.91094559    -0.04500
N360        N  0.27312518  0.64877559  0.83866632    -0.23250
H361        H  0.33808318  0.62287645  0.92274941     0.09340
N362        N  0.12606281  0.79078121  0.92061394    -0.44470
H363        H  0.38136625  0.83699412  0.91499816     0.09320
C364        C  0.38931106  0.74152338  0.79614247     0.45020
C365        C  0.21008335  0.87558520  0.91561057    -0.04000
Co366      Co  0.30712727  0.81342114  0.86010897     0.73820
N367        N  0.37901925  0.71958372  0.91331704    -0.44180
C368        C  0.09616770  0.73372079  0.81149809     0.45290
N369        N  0.27377307  0.87368922  0.80914083    -0.44180
Co370      Co  0.31343787  0.69083807  0.86539324     0.73890
C371        C  0.28608020  0.61837093  0.81822392    -0.04500
C372        C  0.13109691  0.71106094  0.92531685    -0.04070
N373        N  0.21593621  0.84056335  0.83304818    -0.23590
N374        N  0.22084367  0.62948432  0.92367431    -0.44360
H375        H  0.11167079  0.65734094  0.82483484     0.09300
C376        C  0.37063367  0.78597587  0.80782737    -0.04480
Cl377      Cl  0.24943520  0.74923656  0.86619465    -0.47480
C378        C  0.39603791  0.75888017  0.92569199     0.45050
H379        H  0.15681811  0.87326517  0.81243132     0.09260
N380        N  0.37130928  0.70621048  0.81188575    -0.44190
C381        C  0.10845094  0.76228192  0.20276051     0.44900
N382        N  0.15396476  0.77785661  0.16790353     0.03790
C383        C  0.28526165  0.62401457  0.08372990    -0.04090
H384        H  0.31780280  0.60718736  0.18876420     0.09280
C385        C  0.37595940  0.78136185  0.18811593    -0.04440
Co386      Co  0.18559349  0.69159340  0.13562705     0.74180
N387        N  0.26841535  0.65007846  0.16528600    -0.23610
Co388      Co  0.30786743  0.68711008  0.13490932     0.74070
C389        C  0.39132924  0.73632911  0.20031606     0.45000
N390        N  0.27679667  0.84711125  0.16813966     0.03410
N391        N  0.34503322  0.72231599  0.16589256     0.03510
N392        N  0.20508586  0.62557382  0.08395529    -0.44460
H393        H  0.11184777  0.68189608  0.19351693     0.09270
N394        N  0.22177041  0.65236735  0.16538366     0.03800
N395        N  0.34579738  0.72520655  0.10431132     0.03540
C396        C  0.38947665  0.74542999  0.06941476     0.45140
N397        N  0.23022285  0.85018390  0.16822885    -0.23070
C398        C  0.12178106  0.71714509  0.08545168    -0.03990
N399        N  0.12946830  0.79760754  0.18861936    -0.44180
N400        N  0.37096661  0.70770189  0.08296276    -0.44400
C401        C  0.10442241  0.76045383  0.07285483     0.44920
N402        N  0.22261940  0.65347089  0.10394222     0.03790
N403        N  0.22869715  0.85051803  0.10664903    -0.23090
N404        N  0.15069143  0.73118398  0.16735094    -0.23590
N405        N  0.27539524  0.84940395  0.10617999     0.03420
H406        H  0.17665030  0.88510846  0.08063929     0.09310
H407        H  0.38184232  0.82458424  0.07963968     0.09350
N408        N  0.26934551  0.65270973  0.10417058    -0.23630
N409        N  0.34737953  0.76897182  0.16680033    -0.23250
N410        N  0.15138687  0.77859940  0.10636164     0.03790
C411        C  0.23747356  0.60094789  0.19703725     0.45190
C412        C  0.21699609  0.87907250  0.18950687    -0.04500
N413        N  0.34707066  0.77192955  0.10529556    -0.23250
H414        H  0.38621162  0.81709343  0.19352251     0.09330
N415        N  0.20199496  0.62320710  0.18370183    -0.44470
H416        H  0.18104606  0.88921985  0.19465479     0.09320
C417        C  0.25602567  0.89335136  0.07135812     0.45020
C418        C  0.12211101  0.71785302  0.18870186    -0.03990
Co419      Co  0.19034892  0.81496684  0.13726672     0.73820
N420        N  0.29670310  0.87222181  0.18845140    -0.44180
C421        C  0.24289493  0.60619288  0.07047151     0.45290
N422        N  0.12393904  0.79736866  0.08669135    -0.44170
Co423      Co  0.31243183  0.81007304  0.13662988     0.73890
C424        C  0.37392865  0.78788879  0.08404179    -0.04500
C425        C  0.28186178  0.61850546  0.18487681    -0.04070
N426        N  0.15043198  0.73181725  0.10600200    -0.23590
N427        N  0.37124711  0.70156699  0.18521215    -0.44360
H428        H  0.32191173  0.61521207  0.07958112     0.09290
C429        C  0.21323284  0.87750552  0.08543740    -0.04480
Cl430      Cl  0.24898857  0.75088495  0.13604440    -0.47480
C431        C  0.26136341  0.89338415  0.20294374     0.45050
H432        H  0.11315630  0.68073852  0.08063400     0.09260
N433        N  0.29337840  0.87470876  0.08515145    -0.44190
C434        C  0.14738310  0.48862339  0.70062481     0.44900
N435        N  0.09834709  0.96903468  0.66474890     0.03790
C436        C  0.46131954  0.63092249  0.58468026    -0.04090
H437        H  0.42018067  0.64166054  0.68805858     0.09280
C438        C  0.37356966  0.96229493  0.68812682    -0.04440
Co439      Co  0.06431937  0.56071387  0.63738434     0.74180
N440        N  0.47382326  0.60087754  0.66651933    -0.23610
Co441      Co  0.43750334  0.56502424  0.63497851     0.74070
C442        C  0.36706456  0.50315947  0.70282553     0.45000
N443        N  0.46743410  0.90552052  0.66396203     0.03410
N444        N  0.40168319  0.52531835  0.66508935     0.03510
N445        N  0.04385749  0.62364845  0.58557904    -0.44460
H446        H  0.14050274  0.56951676  0.69413829     0.09270
N447        N  0.02684113  0.59817843  0.66813334     0.03800
N448        N  0.40181069  0.52844228  0.60303680     0.03540
C449        C  0.35870188  0.50950384  0.56797443     0.45140
N450        N  0.02122610  0.89774942  0.66289199    -0.23070
C451        C  0.12770747  0.53861497  0.58537406    -0.03990
N452        N  0.12510330  0.94791434  0.68372599    -0.44180
N453        N  0.37548936  0.54676782  0.58270526    -0.44400
C454        C  0.14459418  0.49622664  0.57112859     0.44920
N455        N  0.02632286  0.59789886  0.60653766     0.03790
N456        N  0.02230643  0.90253260  0.60162795    -0.23090
N457        N  0.10089439  0.52111795  0.66794226    -0.23580
N458        N  0.47168534  0.90834559  0.60279202     0.03420
H459        H  0.07435472  0.86535863  0.57645357     0.09320
H460        H  0.36464866  0.92910167  0.57616963     0.09350
N461        N  0.47649792  0.60295010  0.60550137    -0.23630
N462        N  0.39488127  0.97927177  0.66501054    -0.23250
N463        N  0.09879968  0.97455506  0.60321322     0.03790
C464        C  0.49835563  0.65139878  0.69940298     0.45190
C465        C  0.03420679  0.86985351  0.68438986    -0.04500
N466        N  0.39634888  0.98152564  0.60326533    -0.23250
H467        H  0.36961592  0.92542619  0.69365094     0.09340
N468        N  0.04463831  0.62926847  0.68606331    -0.44470
H469        H  0.07017041  0.86150280  0.69024191     0.09320
C470        C  0.49434107  0.86505919  0.56835326     0.45020
C471        C  0.13032857  0.53369461  0.68889037    -0.03990
Co472      Co  0.06094901  0.93523644  0.63308668     0.73820
N473        N  0.44752570  0.87878122  0.68346482    -0.44190
C474        C  0.50426457  0.64957962  0.57207754     0.45290
N475        N  0.12446148  0.95790891  0.58185056    -0.44170
Co476      Co  0.43170325  0.94306788  0.63361374     0.73890
C477        C  0.37075658  0.96579917  0.58155827    -0.04500
C478        C  0.45690790  0.63150072  0.68568192    -0.04070
N479        N  0.10013928  0.52254775  0.60630760    -0.23590
N480        N  0.38054792  0.54165054  0.68814341    -0.44350
H481        H  0.42478894  0.63792117  0.57945702     0.09290
C482        C  0.03784951  0.87463457  0.58069786    -0.04480
Cl483      Cl  0.49898902  0.50386707  0.63435948    -0.47480
C484        C  0.48303430  0.86006618  0.69838042     0.45050
H485        H  0.13554210  0.57536139  0.58107036     0.09260
N486        N  0.45567788  0.88205894  0.58176293    -0.44190
C487        C  0.50204448  0.86955257  0.29199202     0.44900
N488        N  0.00414159  0.90051033  0.33490704     0.03790
C489        C  0.37950881  0.54794462  0.41518908    -0.04090
H490        H  0.37713794  0.59185836  0.31293439     0.09280
C491        C  0.05230486  0.61355028  0.30962069    -0.04440
Co492      Co  0.43629085  0.94346175  0.36068925     0.74180
N493        N  0.41263400  0.53413045  0.33346005    -0.23610
Co494      Co  0.44936565  0.56773040  0.36537303     0.74070
C495        C  0.52069931  0.64632184  0.30350963     0.45000
N496        N  0.10129984  0.50842142  0.33375786     0.03410
N497        N  0.49300088  0.60219782  0.33617009     0.03510
N498        N  0.37146225  0.96554351  0.41159358    -0.44460
H499        H  0.42299834  0.88343409  0.29975788     0.09270
N500        N  0.40391581  0.98495432  0.32984618     0.03800
N501        N  0.48655164  0.60041075  0.39771003     0.03540
C502        C  0.50564683  0.64283020  0.43302135     0.45140
N503        N  0.08479048  0.96739132  0.33153429    -0.23070
C504        C  0.45154269  0.87640121  0.41231980    -0.03990
N505        N  0.01554884  0.86983460  0.31472280    -0.44180
N506        N  0.46855136  0.62795417  0.41773217    -0.44400
C507        C  0.49236620  0.85602532  0.42649598     0.44920
N508        N  0.39957996  0.98230932  0.39149679     0.03790
N509        N  0.09469790  0.96573233  0.39272343    -0.23090
N510        N  0.47496125  0.90774039  0.32961514    -0.23590
N511        N  0.10060687  0.51544828  0.39511337     0.03420
H512        H  0.12458247  0.91020058  0.41846169     0.09320
H513        H  0.08715561  0.62493192  0.41916489     0.09350
N514        N  0.40721529  0.53123629  0.39433731    -0.23630
N515        N  0.03306422  0.58936517  0.33093378    -0.23250
N516        N  0.01276397  0.89854344  0.39612001     0.03790
C517        C  0.35995110  0.51509943  0.30124657     0.45190
C518        C  0.10747726  0.94830922  0.30949040    -0.04500
N519        N  0.03264102  0.59648828  0.39228379    -0.23240
H520        H  0.08976388  0.61703494  0.30537127     0.09340
N521        N  0.37768034  0.96965391  0.30860027    -0.44470
H522        H  0.11040032  0.91087243  0.30491688     0.09320
C523        C  0.14285682  0.49544851  0.43024198     0.45020
C524        C  0.45950472  0.88656227  0.30613416    -0.03990
Co525      Co  0.04985986  0.93233726  0.36382304     0.73880
N526        N  0.13378886  0.52039043  0.31475852    -0.44180
C527        C  0.35775437  0.50604611  0.42739633     0.45290
N528        N  0.03033130  0.86903445  0.41505749    -0.44180
Co529      Co  0.06760210  0.55317466  0.36294103     0.73890
C530        C  0.05025123  0.62225110  0.41355526    -0.04500
C531        C  0.38382916  0.55426967  0.31480023    -0.04070
N532        N  0.47005507  0.90269878  0.39143918    -0.23590
N533        N  0.48005935  0.63131415  0.31571665    -0.44350
H534        H  0.37480513  0.58480209  0.42080172     0.09300
C535        C  0.12167354  0.94731935  0.41319624    -0.04480
Cl536      Cl  0.50624710  0.50234457  0.36611694    -0.47480
C537        C  0.15005670  0.47928612  0.30360253     0.45050
H538        H  0.41428369  0.87207936  0.41689583     0.09260
N539        N  0.12848574  0.53288378  0.41491885    -0.44190
C540        C  0.99854037  0.76903413  0.49970101     0.03010
C541        C  0.00414133  0.72134327  0.49985533     0.03010
C542        C  0.27262723  0.00211201  0.49716587     0.03010
C543        C  0.22498658  0.99616931  0.49731079     0.03010
C544        C  0.99611370  0.75148176  0.25074041    -0.00040
C545        C  0.50307499  0.83566249  0.26840344    -0.13990
C546        C  0.50508662  0.78919566  0.27400558    -0.29160
H547        H  0.49521083  0.84811611  0.24733043     0.15030
H548        H  0.03991582  0.80300193  0.27644486     0.15610
C549        C  0.52553979  0.68554137  0.28366510    -0.13990
C550        C  0.48874930  0.70460152  0.27009773    -0.29160
H551        H  0.05154579  0.67323644  0.26323503     0.15030
H552        H  0.45391580  0.68878404  0.27247996     0.15610
C553        C  0.00652273  0.69452606  0.47380532    -0.10830
C554        C  0.50279944  0.67527949  0.45615617    -0.12390
C555        C  0.49258687  0.82656507  0.45130238    -0.10830
C556        C  0.99719624  0.79583560  0.47380673    -0.12390
C557        C  0.19849176  0.99151046  0.47138720    -0.10830
C558        C  0.17392449  0.49780693  0.45394333    -0.12390
C559        C  0.32591810  0.50452536  0.45131315    -0.10830
C560        C  0.29991531  0.00189658  0.47117612    -0.12390
C561        C  0.17596121  0.49469725  0.54699940    -0.10830
C562        C  0.19776148  0.99513891  0.52332920    -0.12390
C563        C  0.32751638  0.51186055  0.54430360    -0.10830
C564        C  0.29913754  0.00776326  0.52300774    -0.12390
C565        C  0.00698806  0.69470081  0.52588972    -0.10830
C566        C  0.50682493  0.68127480  0.54838468    -0.12390
C567        C  0.49369101  0.83343254  0.54471206    -0.10830
C568        C  0.99459858  0.79670136  0.52526658    -0.12390
C569        C  0.07343303  0.77143890  0.22522494    -0.13990
C570        C  0.03789784  0.74141302  0.23082672    -0.29160
H571        H  0.07446349  0.80620327  0.23487572     0.15030
H572        H  0.03581641  0.70911497  0.21835610     0.15610
C573        C  0.43083896  0.72703475  0.21938094    -0.13990
C574        C  0.44907101  0.75952417  0.23690566    -0.29160
H575        H  0.44659278  0.69193937  0.21828136     0.15030
H576        H  0.43173275  0.79376627  0.23883656     0.15610
C577        C  0.24610689  0.54590582  0.02766113    -0.10830
C578        C  0.24188171  0.57202928  0.04780002    -0.12390
C579        C  0.25840363  0.92234208  0.04645529    -0.10830
C580        C  0.25753435  0.94604766  0.02528570    -0.12390
C581        C  0.25561543  0.55099594  0.97667042    -0.10830
C582        C  0.25940059  0.57874706  0.95775080    -0.12390
C583        C  0.25855039  0.94690666  0.97319689    -0.10830
C584        C  0.25787183  0.92406180  0.95168202    -0.12390
C585        C  0.50730448  0.70890195  0.73831540    -0.13990
C586        C  0.49903677  0.69976250  0.71091317    -0.29160
H587        H  0.51312174  0.67882328  0.75211729     0.15030
H588        H  0.01262323  0.72628996  0.69572300     0.15610
C589        C  0.47555090  0.82649292  0.72136097    -0.13990
C590        C  0.50970399  0.79618808  0.72871549    -0.29160
H591        H  0.44069196  0.82515825  0.73100265     0.15030
H592        H  0.04867948  0.79441035  0.71976809     0.15610
C593        C  0.04853338  0.75991017  0.77209458    -0.13990
C594        C  0.05539061  0.72943348  0.79313048    -0.29160
H595        H  0.07406938  0.78833412  0.76914692     0.15030
H596        H  0.03188324  0.69954340  0.79619080     0.15610
C597        C  0.46120391  0.76657954  0.77013540    -0.13990
C598        C  0.42778619  0.73378312  0.77538812    -0.29160
H599        H  0.45825078  0.80068178  0.78070162     0.15030
H600        H  0.43054864  0.69862936  0.76629175     0.15610
C601        C  0.29057739  0.50767215  0.72499975    -0.13990
C602        C  0.33735368  0.50395380  0.72803597    -0.29160
H603        H  0.27717659  0.51258471  0.70371115     0.15030
H604        H  0.34611569  0.99261842  0.74934925     0.15610
C605        C  0.18883794  0.47934543  0.71832892    -0.13990
C606        C  0.20655910  0.51118259  0.73628085    -0.29160
H607        H  0.20715516  0.94314394  0.71263459     0.15030
H608        H  0.18735506  0.54414569  0.73970192     0.15610
C609        C  0.26509754  0.54498182  0.76979190    -0.13990
C610        C  0.23432351  0.55654371  0.79028615    -0.29160
H611        H  0.29678373  0.56630619  0.76716295     0.15030
H612        H  0.20101466  0.53786448  0.79219845     0.15610
C613        C  0.25598542  0.94997578  0.76272729    -0.13990
C614        C  0.22583297  0.93310010  0.78218573    -0.29160
H615        H  0.28622803  0.92857859  0.75632311     0.15030
H616        H  0.19444301  0.95366222  0.78748963     0.15610
C617        C  0.04587650  0.76180177  0.02974169    -0.10830
C618        C  0.07150195  0.76348948  0.04996500    -0.12390
C619        C  0.44389738  0.74641780  0.02395191    -0.10830
C620        C  0.41930870  0.74374823  0.04477791    -0.12390
C621        C  0.04893469  0.75919117  0.97830246    -0.10830
C622        C  0.07647540  0.75831128  0.95884044    -0.12390
C623        C  0.44684584  0.75635230  0.97228470    -0.10830
C624        C  0.42430617  0.75866242  0.95079579    -0.12390
C625        C  0.29685928  0.48716504  0.26857500    -0.13990
C626        C  0.31640646  0.52099774  0.28464973    -0.29160
H627        H  0.31307770  0.45223400  0.26784777     0.15030
H628        H  0.34440253  0.02755220  0.25095897     0.15610
C629        C  0.19251321  0.47326046  0.28590798    -0.13990
C630        C  0.21131298  0.50792269  0.27012274    -0.29160
H631        H  0.16664716  0.94979685  0.26201461     0.15030
H632        H  0.19522622  0.54293576  0.27064130     0.15610
C633        C  0.26318887  0.54096335  0.23181658    -0.13990
C634        C  0.22931688  0.56027364  0.21577846    -0.29160
H635        H  0.29846597  0.55615756  0.23126715     0.15030
H636        H  0.19371765  0.54594232  0.21666496     0.15610
C637        C  0.23877196  0.96367941  0.23121094    -0.13990
C638        C  0.26953151  0.92830720  0.22574549    -0.29160
H639        H  0.20712167  0.96562255  0.21837109     0.15030
H640        H  0.30329056  0.92686810  0.23643206     0.15610
C641        C  0.75625933  0.50152969  0.24760841    -0.00040
C642        C  0.97244074  0.25012430  0.00116029     0.03010
C643        C  0.52065758  0.25351376  0.00080038     0.03010
C644        C  0.74655264  0.50015296  0.75134359    -0.00040
C645        C  0.50821118  0.25992650  0.75107000    -0.00040
C646        C  0.75509582  0.47364285  0.00231798     0.03010
C647        C  0.75395354  0.02207309  0.00166466     0.03010
C648        C  0.75276677  0.39481514  0.92991289     0.44900
N649        N  0.77255008  0.35002029  0.89539554     0.03790
C650        C  0.62126613  0.20077423  0.82352084    -0.04080
H651        H  0.62457572  0.17653818  0.92871656     0.09280
C652        C  0.79862925  0.12667907  0.91832462    -0.04440
Co653      Co  0.68781184  0.31017082  0.86617058     0.74180
N654        N  0.65715369  0.22741657  0.90089863    -0.23610
Co655      Co  0.69230977  0.18745457  0.87076029     0.74070
C656        C  0.75753970  0.10981548  0.93384881     0.45000
N657        N  0.85156756  0.22979098  0.89439707     0.03410
N658        N  0.73385957  0.15414503  0.90057022     0.03510
N659        N  0.61891645  0.28065565  0.81897256    -0.44460
H660        H  0.67340767  0.38344380  0.92217425     0.09270
N661        N  0.65410001  0.27397304  0.89888103     0.03800
N662        N  0.72707510  0.14893991  0.83982193     0.03540
C663        C  0.74095322  0.09861168  0.80713804     0.45140
N664        N  0.84912901  0.27649105  0.89459766    -0.23070
C665        C  0.70951816  0.37195721  0.81186280    -0.03990
N666        N  0.79023843  0.37671721  0.91577864    -0.44180
N667        N  0.70645353  0.11847709  0.82275226    -0.44400
C668        C  0.75333367  0.38757500  0.79794554     0.44920
N669        N  0.65083849  0.26737796  0.83774681     0.03790
N670        N  0.84521793  0.27458840  0.83319642    -0.23090
N671        N  0.72582574  0.34975797  0.89544080    -0.23590
N672        N  0.84508839  0.22787866  0.83243080     0.03430
H673        H  0.87404666  0.32767752  0.80530487     0.09320
H674        H  0.82163616  0.11024265  0.81010431     0.09350
N675        N  0.65233068  0.22091014  0.84073793    -0.23630
N676        N  0.78036968  0.15386806  0.89797958    -0.23250
N677        N  0.77091737  0.34602803  0.83392006     0.03790
C678        C  0.61080453  0.25626325  0.93417128     0.45190
C679        C  0.87500794  0.29309138  0.91600613    -0.04500
N680        N  0.77347597  0.14992623  0.83686751    -0.23250
H681        H  0.83572196  0.11882986  0.92130120     0.09340
N682        N  0.62624930  0.29281348  0.91848330    -0.44470
H683        H  0.87985564  0.32994762  0.92147453     0.09320
C684        C  0.88131267  0.24869476  0.79480132     0.45020
C685        C  0.71006864  0.37709583  0.91667759    -0.04000
Co686      Co  0.81025806  0.31253809  0.86454102     0.73820
N687        N  0.87784067  0.21288002  0.91510781    -0.44180
C688        C  0.59968837  0.24004644  0.80913470     0.45290
N689        N  0.78946311  0.37030490  0.81290137    -0.44180
Co690      Co  0.81372265  0.18970026  0.86514944     0.73890
C691        C  0.78585412  0.11919642  0.81635880    -0.04500
C692        C  0.63074743  0.21291593  0.92268322    -0.04070
N693        N  0.72423388  0.34570394  0.83384136    -0.23590
N694        N  0.71855824  0.12772629  0.92170331    -0.44360
H695        H  0.61322714  0.16340263  0.82238889     0.09300
C696        C  0.86827928  0.29089227  0.81051775    -0.04480
Cl697      Cl  0.75095686  0.25004428  0.86667337    -0.47480
C698        C  0.89379654  0.25085209  0.92935904     0.45050
H699        H  0.67312550  0.37934891  0.80648755     0.09260
N700        N  0.86680074  0.21073681  0.80974823    -0.44190
C701        C  0.60321170  0.25708317  0.20099146     0.44900
N702        N  0.64844928  0.27148401  0.16594289     0.03790
C703        C  0.78932890  0.12239112  0.08611223    -0.04090
H704        H  0.81930056  0.11173224  0.19491068     0.09280
C705        C  0.87748597  0.28212611  0.18963038    -0.04440
Co706      Co  0.68586136  0.18568443  0.13681733     0.74180
N707        N  0.76920737  0.14859997  0.16855533    -0.23610
Co708      Co  0.80891566  0.18574943  0.13799264     0.74070
C709        C  0.89671373  0.23736293  0.20056208     0.45000
N710        N  0.76809192  0.34440446  0.16994513     0.03410
N711        N  0.84475400  0.22236370  0.16908868     0.03510
N712        N  0.70913165  0.12154794  0.08590897    -0.44460
H713        H  0.61058310  0.17616220  0.19445541     0.09270
N714        N  0.72247129  0.14960140  0.16830638     0.03800
N715        N  0.84705830  0.22501304  0.10764469     0.03540
C716        C  0.89220156  0.24658557  0.07352856     0.45140
N717        N  0.72154183  0.34338834  0.16784355    -0.23070
C718        C  0.62273028  0.20672519  0.08459267    -0.03990
N719        N  0.62268344  0.29191039  0.18582257    -0.44180
N720        N  0.87376386  0.20834736  0.08668796    -0.44400
C721        C  0.60526847  0.24913502  0.07068892     0.44920
N722        N  0.72559793  0.14859949  0.10651132     0.03790
N723        N  0.72607353  0.34461382  0.10648144    -0.23090
N724        N  0.64748919  0.22485793  0.16690177    -0.23590
N725        N  0.77267272  0.34641938  0.10790847     0.03420
H726        H  0.67500234  0.37737297  0.07900695     0.09310
H727        H  0.88169216  0.32548306  0.08369762     0.09350
N728        N  0.77229914  0.14956175  0.10700369    -0.23630
N729        N  0.84564380  0.26912821  0.17004341    -0.23250
N730        N  0.65099569  0.26966506  0.10445699     0.03790
C731        C  0.73898946  0.10356349  0.20297624     0.45190
C732        C  0.70245792  0.36791646  0.18915773    -0.04500
N733        N  0.84717761  0.27182355  0.10877067    -0.23250
H734        H  0.88873502  0.31801963  0.19380034     0.09330
N735        N  0.70320474  0.12316798  0.18834097    -0.44470
H736        H  0.66514055  0.37409189  0.19270540     0.09320
C737        C  0.75454635  0.39019134  0.07275822     0.45020
C738        C  0.61904252  0.21207549  0.18843762    -0.03990
Co739      Co  0.68634582  0.30784113  0.13589383     0.73820
N740        N  0.78234886  0.37016640  0.19179594    -0.44180
C741        C  0.74752751  0.10406413  0.07235910     0.45290
N742        N  0.62394223  0.28692289  0.08411094    -0.44170
Co743      Co  0.80915372  0.30894771  0.13943547     0.73890
C744        C  0.87471945  0.28855804  0.08799175    -0.04500
C745        C  0.78305414  0.12023144  0.18976888    -0.04070
N746        N  0.65055471  0.22292122  0.10527922    -0.23590
N747        N  0.87488082  0.20233149  0.18661048    -0.44360
H748        H  0.82628424  0.11551218  0.08166107     0.09290
C749        C  0.71138435  0.37130665  0.08494238    -0.04480
Cl750      Cl  0.74775174  0.24701383  0.13748539    -0.47480
C751        C  0.74232501  0.38512235  0.20501528     0.45050
H752        H  0.61454588  0.16997300  0.08049687     0.09260
N753        N  0.79132152  0.37348206  0.08788244    -0.44190
C754        C  0.63732774  0.99412481  0.70076645     0.44900
N755        N  0.59361552  0.47773585  0.66637956     0.03790
C756        C  0.96436276  0.12807487  0.58815385    -0.04090
H757        H  0.93397974  0.13614517  0.69570972     0.09280
C758        C  0.87413430  0.46588754  0.69037122    -0.04440
Co759      Co  0.55244192  0.06752446  0.63928918     0.74180
N760        N  0.98214448  0.09486890  0.66992576    -0.23610
Co761      Co  0.94141822  0.06160160  0.63864007     0.74070
C762        C  0.86517830  0.99738369  0.70434270     0.45000
N763        N  0.97757506  0.40376526  0.66931015     0.03410
N764        N  0.90530727  0.02117235  0.66871439     0.03510
N765        N  0.53496999  0.13154921  0.58766447    -0.44460
H766        H  0.62977183  0.07494959  0.69488239     0.09270
N767        N  0.51087009  0.10332038  0.66975793     0.03800
N768        N  0.90217840  0.02752107  0.60683730     0.03540
C769        C  0.85460838  0.01132178  0.57320402     0.45140
N770        N  0.51986051  0.40378423  0.66318866    -0.23070
C771        C  0.61947891  0.04795115  0.58813442    -0.03990
N772        N  0.61850017  0.45715398  0.68638789    -0.44180
N773        N  0.87367274  0.04740120  0.58806965    -0.44400
C774        C  0.63710601  0.00589171  0.57381471     0.44920
N775        N  0.51608641  0.10504931  0.60785455     0.03790
N776        N  0.52384747  0.40735558  0.60204113    -0.23090
N777        N  0.58790677  0.02687362  0.66979960    -0.23580
N778        N  0.97646844  0.40174019  0.60759915     0.03420
H779        H  0.57763630  0.37196019  0.57717199     0.09320
H780        H  0.86807976  0.42529492  0.58214832     0.09350
N781        N  0.97978138  0.09933014  0.60856923    -0.23630
N782        N  0.90323360  0.47921001  0.66931796    -0.23250
N783        N  0.59831277  0.48167175  0.60515676     0.03790
C784        C  0.01455377  0.14154809  0.70259023     0.45190
C785        C  0.53296748  0.37558823  0.68445111    -0.04500
N786        N  0.90316948  0.47741205  0.60800063    -0.23250
H787        H  0.86444633  0.42987872  0.69546265     0.09340
N788        N  0.52469730  0.13432602  0.68921712    -0.44470
H789        H  0.56895398  0.36780251  0.69052069     0.09320
C790        C  0.99542838  0.35675429  0.57314126     0.45020
C791        C  0.61867426  0.03922410  0.69009924    -0.03990
Co792      Co  0.55967585  0.44203247  0.63414755     0.73820
N793        N  0.96012429  0.38040408  0.69122181    -0.44190
C794        C  0.00725513  0.14459537  0.57437634     0.45290
N795        N  0.62636821  0.46470441  0.58505620    -0.44170
Co796      Co  0.93931768  0.43958897  0.63860926     0.73890
C797        C  0.87585382  0.46189773  0.58695284    -0.04500
C798        C  0.96966158  0.12465570  0.69089775    -0.04070
N799        N  0.59142446  0.03110780  0.60862375    -0.23590
N800        N  0.88178120  0.03649082  0.69126057    -0.44350
H801        H  0.92781468  0.13644904  0.58371657     0.09290
C802        C  0.54077608  0.38002689  0.58116779    -0.04480
Cl803      Cl  0.00129819  0.99849039  0.63539288    -0.47480
C804        C  0.99777825  0.36464937  0.70580183     0.45050
H805        H  0.62666089  0.08486509  0.58395239     0.09260
N806        N  0.95820322  0.37475100  0.58754243    -0.44190
C807        C  0.98732946  0.34824744  0.30724587     0.44900
N808        N  0.52748737  0.40485660  0.33500072     0.03790
C809        C  0.88205885  0.04796659  0.42687482    -0.04090
H810        H  0.87136050  0.09494571  0.32017872     0.09280
C811        C  0.55355576  0.12273491  0.31534693    -0.04440
Co812      Co  0.93507175  0.44345220  0.36904936     0.74180
N813        N  0.89860999  0.03614871  0.34415737    -0.23610
Co814      Co  0.94223544  0.06692668  0.37353266     0.74070
C815        C  0.98961403  0.14772461  0.30716783     0.45000
N816        N  0.60351052  0.02020060  0.33685380     0.03410
N817        N  0.97717949  0.10163053  0.34184398     0.03510
N818        N  0.87519653  0.47469320  0.41912251    -0.44460
H819        H  0.91048072  0.36694656  0.31808464     0.09270
N820        N  0.90223396  0.47969413  0.33684068     0.03800
N821        N  0.98813144  0.09720821  0.40205327     0.03540
C822        C  0.01646246  0.14049174  0.43463973     0.45140
N823        N  0.60603795  0.47395544  0.33806681    -0.23070
C824        C  0.95261219  0.38162057  0.42237941    -0.03990
N825        N  0.54718324  0.37528667  0.31678121    -0.44180
N826        N  0.97586736  0.12495811  0.42337255    -0.44400
C827        C  0.99421177  0.36016744  0.43506576     0.44920
N828        N  0.90244530  0.48815419  0.39786464     0.03790
N829        N  0.59971037  0.47177041  0.39953640    -0.23090
N830        N  0.96813880  0.40009457  0.33994590    -0.23590
N831        N  0.59756939  0.01575892  0.39782715     0.03420
H832        H  0.63102605  0.41693083  0.42513780     0.09320
H833        H  0.57936172  0.12478390  0.42477870     0.09350
N834        N  0.90646649  0.03091738  0.40483130    -0.23630
N835        N  0.53350698  0.09709238  0.33577566    -0.23250
N836        N  0.52031067  0.40240789  0.39590348     0.03790
C837        C  0.85252305  0.01870464  0.30863495     0.45190
C838        C  0.63587914  0.45804655  0.31798915    -0.04500
N839        N  0.52730312  0.09473311  0.39691152    -0.23240
H840        H  0.59111225  0.12695578  0.31175332     0.09340
N841        N  0.87597153  0.45918349  0.31751015    -0.44470
H842        H  0.64314284  0.42125291  0.31324839     0.09320
C843        C  0.63986282  0.99256791  0.43243375     0.45020
C844        C  0.94806032  0.37164541  0.32109491    -0.03990
Co845      Co  0.56381214  0.43754170  0.36718683     0.73880
N846        N  0.63522871  0.03952696  0.31997781    -0.44180
C847        C  0.86013448  0.00643343  0.43915463     0.45290
N848        N  0.53453787  0.37391333  0.41631789    -0.44180
Co849      Co  0.56586616  0.05736284  0.36698142     0.73890
C850        C  0.54281739  0.12020901  0.41877743    -0.04500
C851        C  0.87374078  0.05728949  0.32393246    -0.04070
N852        N  0.96989063  0.40678466  0.40071659    -0.23590
N853        N  0.95631161  0.13168217  0.32472856    -0.44350
H854        H  0.87815421  0.08491365  0.43249942     0.09300
C855        C  0.62529857  0.45406703  0.42077938    -0.04480
Cl856      Cl  0.99614803  0.99989656  0.36809896    -0.47480
C857        C  0.65499328  0.00435467  0.30496755     0.45050
H858        H  0.91561612  0.37720224  0.42764561     0.09260
N859        N  0.62380197  0.03127442  0.41895422    -0.44190
C860        C  0.49686005  0.27443345  0.49904641     0.03010
C861        C  0.49896563  0.22654778  0.50016242     0.03010
C862        C  0.77817786  0.50873417  0.50262059     0.03010
C863        C  0.73070182  0.50288964  0.50298155     0.03010
C864        C  0.49100507  0.24732526  0.24836118    -0.00040
C865        C  0.98174728  0.30838109  0.28784991    -0.13990
C866        C  0.01574872  0.29234652  0.27044587    -0.29160
H867        H  0.94664158  0.29295059  0.28695193     0.15030
H868        H  0.52731559  0.28292110  0.27652246     0.15610
C869        C  0.97899271  0.18632305  0.28708238    -0.13990
C870        C  0.00384633  0.20523649  0.26664359    -0.29160
H871        H  0.55357119  0.18126232  0.26830960     0.15030
H872        H  0.96766967  0.21558326  0.27845482     0.15610
C873        C  0.49790710  0.19792940  0.47491324    -0.10830
C874        C  0.01833572  0.17322810  0.45774682    -0.12390
C875        C  0.99558039  0.32675987  0.45775940    -0.10830
C876        C  0.49504682  0.30004532  0.47267925    -0.12390
C877        C  0.70335527  0.49961204  0.47750197    -0.10830
C878        C  0.67091154  0.99394942  0.45648906    -0.12390
C879        C  0.82521251  0.00603863  0.46092524    -0.10830
C880        C  0.80458327  0.51306777  0.47658264    -0.12390
C881        C  0.66746847  0.00417590  0.54964825    -0.10830
C882        C  0.70395557  0.50085154  0.52893299    -0.12390
C883        C  0.82022282  0.01537674  0.55104495    -0.10830
C884        C  0.80537140  0.50921863  0.52829039    -0.12390
C885        C  0.50161510  0.20120281  0.52663834    -0.10830
C886        C  0.01019839  0.17514304  0.55032140    -0.12390
C887        C  0.99277387  0.32518191  0.54957270    -0.10830
C888        C  0.49693283  0.30319815  0.52421334    -0.12390
C889        C  0.56821878  0.26691262  0.22323904    -0.13990
C890        C  0.53316818  0.23672740  0.22897587    -0.29160
H891        H  0.56847477  0.30203377  0.23249221     0.15030
H892        H  0.53235199  0.20319014  0.21764910     0.15610
C893        C  0.93962392  0.22844399  0.21740510    -0.13990
C894        C  0.96076164  0.26163052  0.23311274    -0.29160
H895        H  0.95407099  0.19276312  0.21710020     0.15030
H896        H  0.94521115  0.29685791  0.23396285     0.15610
C897        C  0.74933467  0.04754206  0.02801385    -0.10830
C898        C  0.74681915  0.07237171  0.04867625    -0.12390
C899        C  0.75777775  0.42104962  0.04869755    -0.10830
C900        C  0.75721702  0.44589699  0.02799409    -0.12390
C901        C  0.75557470  0.05080435  0.97664214    -0.10830
C902        C  0.75689735  0.07714736  0.95679762    -0.12390
C903        C  0.75620147  0.44749892  0.97601163    -0.10830
C904        C  0.75551445  0.42404709  0.95470952    -0.12390
C905        C  0.99208766  0.20132437  0.73829373    -0.13990
C906        C  0.02264501  0.18527514  0.71877254    -0.29160
H907        H  0.96281416  0.17858084  0.74430952     0.15030
H908        H  0.45012266  0.21987644  0.71295637     0.15610
C909        C  0.99572168  0.33362315  0.73052722    -0.13990
C910        C  0.99003818  0.28684645  0.72708298    -0.29160
H911        H  0.00464326  0.34813118  0.75101462     0.15030
H912        H  0.54783492  0.29665319  0.71690531     0.15610
C913        C  0.54961757  0.26655443  0.77067302    -0.13990
C914        C  0.55795559  0.23605299  0.79145091    -0.29160
H915        H  0.57391699  0.29598045  0.76757000     0.15030
H916        H  0.53547106  0.20521478  0.79410766     0.15610
C917        C  0.95831862  0.25927677  0.77326522    -0.13990
C918        C  0.91297285  0.24650032  0.77033430    -0.29160
H919        H  0.96919529  0.27314095  0.79365837     0.15030
H920        H  0.90041517  0.23035184  0.75102050     0.15610
C921        C  0.78584585  0.00279578  0.72409324    -0.13990
C922        C  0.83231567  0.99711626  0.72840759    -0.29160
H923        H  0.77421345  0.00818065  0.70249866     0.15030
H924        H  0.82432613  0.55362765  0.73566418     0.15610
C925        C  0.68152878  0.98489779  0.71589307    -0.13990
C926        C  0.70123320  0.01498201  0.73429648    -0.29160
H927        H  0.67285751  0.44618481  0.73205117     0.15030
H928        H  0.68302086  0.04807026  0.73898336     0.15610
C929        C  0.76165296  0.04475030  0.76782516    -0.13990
C930        C  0.73206404  0.05804090  0.78855364    -0.29160
H931        H  0.79413927  0.06462442  0.76466196     0.15030
H932        H  0.69857976  0.03971776  0.79113814     0.15610
C933        C  0.73368897  0.45868610  0.77058555    -0.13990
C934        C  0.76132703  0.42069752  0.77462205    -0.29160
H935        H  0.70234683  0.46285520  0.78379848     0.15030
H936        H  0.79487333  0.41733989  0.76358553     0.15610
C937        C  0.54636471  0.25204335  0.02729685    -0.10830
C938        C  0.57217537  0.25128409  0.04759543    -0.12390
C939        C  0.94630253  0.24748444  0.02761928    -0.10830
C940        C  0.92231066  0.24567166  0.04882305    -0.12390
C941        C  0.54950223  0.25882052  0.97594856    -0.10830
C942        C  0.57674935  0.25967557  0.95643332    -0.12390
C943        C  0.94503393  0.24833197  0.97559514    -0.10830
C944        C  0.92185047  0.24872210  0.95438530    -0.12390
C945        C  0.79675558  0.98781109  0.27418048    -0.13990
C946        C  0.82205922  0.02405751  0.28409013    -0.29160
H947        H  0.79929019  0.95376941  0.28478179     0.15030
H948        H  0.82437729  0.44622963  0.27170650     0.15610
C949        C  0.69963054  0.01159593  0.28948802    -0.13990
C950        C  0.71092071  0.98787552  0.26590963    -0.29160
H951        H  0.73441177  0.50847097  0.30525828     0.15030
H952        H  0.68567134  0.96199103  0.25820266     0.15610
C953        C  0.76635455  0.03754445  0.23345797    -0.13990
C954        C  0.73156635  0.06686096  0.22501446    -0.29160
H955        H  0.80140747  0.04239939  0.22438140     0.15030
H956        H  0.69564295  0.06130029  0.23242470     0.15610
C957        C  0.76769545  0.45581323  0.23121482    -0.13990
C958        C  0.73780077  0.41934790  0.22828559    -0.29160
H959        H  0.79989727  0.45570519  0.21851520     0.15030
H960        H  0.70455854  0.41862629  0.23975126     0.15610
C961        C  0.75946612  0.99268571  0.25147110    -0.00040
C962        C  0.97286981  0.75018540  0.00266825     0.03010
C963        C  0.52002459  0.75445856  0.99961222     0.03010
C964        C  0.74922041  0.00424133  0.74777012    -0.00040
C965        C  0.50534755  0.75881000  0.75156687    -0.00040
C966        C  0.75726397  0.97431052  0.00040369     0.03010
C967        C  0.75079944  0.52149911  0.00287081     0.03010
C968        C  0.75681670  0.89559550  0.92818372     0.44900
N969        N  0.77617659  0.84962604  0.89417659     0.03790
C970        C  0.62196673  0.70236417  0.82291595    -0.04080
H971        H  0.62357888  0.67837381  0.92746326     0.09280
C972        C  0.79591598  0.62530747  0.91929560    -0.04440
Co973      Co  0.69070729  0.81085903  0.86509157     0.74180
N974        N  0.65762476  0.72883005  0.90001291    -0.23610
Co975      Co  0.69256270  0.68838596  0.87015494     0.74070
C976        C  0.75399703  0.60887091  0.93428414     0.45000
N977        N  0.85222131  0.72776399  0.89538287     0.03410
N978        N  0.73239014  0.65381767  0.90055926     0.03510
N979        N  0.62070822  0.78208866  0.81786035    -0.44460
H980        H  0.67735540  0.88505439  0.92050382     0.09270
N981        N  0.65541899  0.77542011  0.89793687     0.03800
N982        N  0.72722800  0.65021931  0.83918123     0.03540
C983        C  0.74015131  0.60657587  0.80318041     0.45140
N984        N  0.85137220  0.77453419  0.89458438    -0.23070
C985        C  0.71353088  0.87838118  0.81390031    -0.03990
N986        N  0.79414008  0.87670012  0.91429050    -0.44180
N987        N  0.70592783  0.62554150  0.81933673    -0.44400
C988        C  0.75680960  0.89900814  0.80186103     0.44920
N989        N  0.65290323  0.76870151  0.83651662     0.03790
N990        N  0.84923770  0.77070998  0.83303584    -0.23090
N991        N  0.72941054  0.84983983  0.89425825    -0.23590
N992        N  0.84830753  0.72395939  0.83364117     0.03430
H993        H  0.88487227  0.82054596  0.80577676     0.09320
H994        H  0.82117704  0.61409879  0.80768485     0.09350
N995        N  0.65360525  0.72230562  0.83982899    -0.23630
N996        N  0.77894785  0.65285661  0.89867162    -0.23250
N997        N  0.77513174  0.84665365  0.83293837     0.03790
C998        C  0.61081206  0.75819987  0.93292065     0.45190
C999        C  0.87796043  0.79138712  0.91565685    -0.04500
N1000       N  0.77375138  0.64928602  0.83707697    -0.23250
H1001       H  0.83274550  0.61680915  0.92274584     0.09340
N1002       N  0.62727832  0.79460421  0.91734820    -0.44470
H1003       H  0.88417135  0.82834332  0.92031816     0.09320
C1004       C  0.89253850  0.74012710  0.79811480     0.45020
C1005       C  0.71394935  0.87794090  0.91518219    -0.04000
Co1006     Co  0.81374036  0.81098964  0.86370527     0.73820
N1007       N  0.87820914  0.71118279  0.91636637    -0.44180
C1008       C  0.60072846  0.74154542  0.80830715     0.45290
N1009       N  0.79316498  0.87824032  0.81534246    -0.44180
Co1010     Co  0.81420577  0.68772640  0.86608534     0.73890
C1011       C  0.78560006  0.62179073  0.81488433    -0.04500
C1012       C  0.63047780  0.71467655  0.92155293    -0.04070
N1013       N  0.72836775  0.84649675  0.83301368    -0.23590
N1014       N  0.71585317  0.62754944  0.92150426    -0.44360
H1015       H  0.61303710  0.66516453  0.82229015     0.09300
C1016       C  0.87661588  0.78435641  0.81129022    -0.04480
Cl1017     Cl  0.75283588  0.74974439  0.86619429    -0.47480
C1018       C  0.89559531  0.74937307  0.92988404     0.45050
H1019       H  0.67725716  0.88957746  0.81107485     0.09260
N1020       N  0.87378966  0.70437727  0.81320740    -0.44190
C1021       C  0.60146583  0.76108010  0.20071130     0.44900
N1022       N  0.64474143  0.77445965  0.16449044     0.03790
C1023       C  0.78675527  0.62212076  0.08741379    -0.04090
H1024       H  0.81829899  0.62488940  0.19757754     0.09280
C1025       C  0.86805311  0.78797328  0.19040332    -0.04440
Co1026     Co  0.68261874  0.68694845  0.13715283     0.74180
N1027       N  0.76648983  0.65433865  0.16932573    -0.23610
Co1028     Co  0.80564206  0.68823388  0.13815709     0.74070
C1029       C  0.88344996  0.74388239  0.20405529     0.45000
N1030       N  0.76345817  0.84820332  0.16541069     0.03410
N1031       N  0.83976530  0.72695753  0.16887618     0.03510
N1032       N  0.70656392  0.62045778  0.08733772    -0.44460
H1033       H  0.60974446  0.68013130  0.19549841     0.09270
N1034       N  0.71981433  0.65463433  0.16958918     0.03800
N1035       N  0.84407980  0.72511268  0.10731365     0.03540
C1036       C  0.88983762  0.74489716  0.07330972     0.45140
N1037       N  0.71700926  0.84792588  0.16278742    -0.23070
C1038       C  0.61981354  0.70399252  0.08422240    -0.03990
N1039       N  0.62001425  0.79561202  0.18468620    -0.44180
N1040       N  0.87134190  0.70727901  0.08699756    -0.44400
C1041       C  0.60298909  0.74573482  0.06936547     0.44920
N1042       N  0.72280515  0.64817888  0.10768676     0.03790
N1043       N  0.72230401  0.84282875  0.10251303    -0.23090
N1044       N  0.64417035  0.72787585  0.16631164    -0.23590
N1045       N  0.76891648  0.84478277  0.10418724     0.03420
H1046       H  0.67174146  0.87526389  0.07458492     0.09310
H1047       H  0.87884837  0.82426782  0.08169052     0.09350
N1048       N  0.76950971  0.64974973  0.10802449    -0.23630
N1049       N  0.84050078  0.77367454  0.16890220    -0.23250
N1050       N  0.64756841  0.76801760  0.10296300     0.03790
C1051       C  0.73896915  0.61804623  0.20720020     0.45190
C1052       C  0.69792183  0.87973491  0.18021076    -0.04500
N1053       N  0.84404854  0.77187218  0.10750564    -0.23250
H1054       H  0.87674311  0.82425545  0.19549740     0.09330
N1055       N  0.70175412  0.63262267  0.19181128    -0.44470
H1056       H  0.66082824  0.88897532  0.18162893     0.09320
C1057       C  0.75151275  0.88718786  0.06856410     0.45020
C1058       C  0.61700083  0.71582073  0.18852861    -0.03990
Co1059     Co  0.68231844  0.80867465  0.13295011     0.73820
N1060       N  0.77783759  0.87993440  0.18404882    -0.44180
C1061       C  0.74509261  0.60292165  0.07393855     0.45290
N1062       N  0.62128703  0.78416661  0.08206826    -0.44170
Co1063     Co  0.80507192  0.81050907  0.13676461     0.73890
C1064       C  0.87197445  0.78757813  0.08669435    -0.04500
C1065       C  0.78177321  0.63120886  0.19207910    -0.04070
N1066       N  0.64711382  0.72140382  0.10479346    -0.23590
N1067       N  0.86462543  0.70801271  0.18943188    -0.44360
H1068       H  0.82376596  0.61585593  0.08281023     0.09290
C1069       C  0.70802241  0.86875899  0.08057566    -0.04480
Cl1070     Cl  0.74400160  0.74859851  0.13610715    -0.47480
C1071       C  0.73794551  0.90032543  0.19422345     0.45050
H1072       H  0.61186814  0.66702471  0.08068664     0.09260
N1073       N  0.78794881  0.87133523  0.08414052    -0.44190
C1074       C  0.63765541  0.49199843  0.70183210     0.44900
N1075       N  0.58728365  0.98013820  0.66816347     0.03790
C1076       C  0.96368431  0.62409338  0.58548253    -0.04090
H1077       H  0.92853390  0.64075401  0.69046983     0.09280
C1078       C  0.87890171  0.95660936  0.68755449    -0.04440
Co1079     Co  0.56013307  0.56522010  0.63699134     0.74180
N1080       N  0.98020334  0.59876560  0.66800013    -0.23610
Co1081     Co  0.94166322  0.56212873  0.63783409     0.74070
C1082       C  0.85871321  0.51038879  0.70345866     0.45000
N1083       N  0.97462899  0.89959622  0.66241992     0.03410
N1084       N  0.90530306  0.52588562  0.66907394     0.03510
N1085       N  0.54147994  0.63134331  0.58618054    -0.44460
H1086       H  0.63129290  0.57286038  0.69543322     0.09270
N1087       N  0.52039450  0.60094095  0.66773081     0.03800
N1088       N  0.90406791  0.52415958  0.60754211     0.03540
C1089       C  0.85962625  0.50484838  0.57322580     0.45140
N1090       N  0.51397860  0.90551776  0.66509673    -0.23070
C1091       C  0.62741111  0.54498648  0.58625226    -0.03990
N1092       N  0.61657996  0.95958976  0.68588334    -0.44180
N1093       N  0.87826186  0.54215257  0.58694149    -0.44400
C1094       C  0.64568203  0.50272604  0.57243136     0.44920
N1095       N  0.52326488  0.60366251  0.60603867     0.03790
N1096       N  0.51832767  0.90903704  0.60390945    -0.23090
N1097       N  0.59497037  0.52447052  0.66758604    -0.23580
N1098       N  0.97560682  0.90397281  0.60123345     0.03420
H1099       H  0.57291160  0.87537614  0.57879162     0.09320
H1100       H  0.86526330  0.93124013  0.57847538     0.09350
N1101       N  0.97959003  0.59762877  0.60682660    -0.23630
N1102       N  0.90396023  0.97464404  0.66609774    -0.23250
N1103       N  0.59148871  0.98435936  0.60723223     0.03790
C1104       C  0.00768728  0.64973381  0.69958979     0.45190
C1105       C  0.52745561  0.87734114  0.68629017    -0.04500
N1106       N  0.90236084  0.98085711  0.60493194    -0.23250
H1107       H  0.87136967  0.91956388  0.69100867     0.09340
N1108       N  0.53648403  0.63165641  0.68653795    -0.44470
H1109       H  0.56355507  0.86993729  0.69229944     0.09320
C1110       C  0.99512052  0.85827893  0.56711835     0.45020
C1111       C  0.62245532  0.53701685  0.68942169    -0.03990
Co1112     Co  0.55342915  0.94425050  0.63608298     0.73820
N1113       N  0.95434091  0.87471585  0.68260901    -0.44190
C1114       C  0.00620682  0.64109730  0.57156872     0.45290
N1115       N  0.61853302  0.96769448  0.58658298    -0.44170
Co1116     Co  0.93851232  0.93922747  0.63339373     0.73890
C1117       C  0.87343593  0.96737091  0.58422544    -0.04500
C1118       C  0.96494669  0.63007631  0.68725107    -0.04070
N1119       N  0.59837929  0.52843078  0.60632359    -0.23590
N1120       N  0.87937010  0.54581854  0.68912325    -0.44350
H1121       H  0.92698600  0.63100656  0.58063953     0.09290
C1122       C  0.53588103  0.88249602  0.58285762    -0.04480
Cl1123     Cl  0.00191287  0.50017590  0.63756708    -0.47480
C1124       C  0.98943237  0.85508102  0.69737320     0.45050
H1125       H  0.63538602  0.58182485  0.58234128     0.09260
N1126       N  0.95766589  0.87729965  0.58090095    -0.44190
C1127       C  0.97426759  0.85563347  0.30325308     0.44900
N1128       N  0.52157043  0.90421692  0.33043252     0.03790
C1129       C  0.87898328  0.55464100  0.41589660    -0.04090
H1130       H  0.87370248  0.57418138  0.30370824     0.09280
C1131       C  0.55982894  0.62503347  0.31836459    -0.04440
Co1132     Co  0.92873640  0.94551045  0.37028200     0.74180
N1133       N  0.90511103  0.52607175  0.33383813    -0.23610
Co1134     Co  0.94491932  0.56547262  0.36280992     0.74070
C1135       C  0.01267311  0.63680834  0.29611345     0.45000
N1136       N  0.60884579  0.52049122  0.33895159     0.03410
N1137       N  0.98666757  0.59532534  0.33065031     0.03510
N1138       N  0.87251001  0.96843360  0.42360245    -0.44460
H1139       H  0.89835689  0.87530421  0.31631817     0.09270
N1140       N  0.89344877  0.98987147  0.34214805     0.03800
N1141       N  0.98613790  0.60153975  0.39215270     0.03540
C1142       C  0.00900055  0.64396304  0.42682152     0.45140
N1143       N  0.60178134  0.97366018  0.33480003    -0.23070
C1144       C  0.95072399  0.87642458  0.41957081    -0.03990
N1145       N  0.53918491  0.88051264  0.30855276    -0.44180
N1146       N  0.97045063  0.62949587  0.41267592    -0.44400
C1147       C  0.99311891  0.85397398  0.43046322     0.44920
N1148       N  0.90060363  0.98467011  0.40345661     0.03790
N1149       N  0.59576716  0.96905421  0.39641529    -0.23090
N1150       N  0.95799904  0.90639110  0.33748599    -0.23590
N1151       N  0.60251155  0.51837604  0.40021615     0.03420
H1152       H  0.62750717  0.91395354  0.42172902     0.09320
H1153       H  0.58491600  0.62765398  0.42678858     0.09350
N1154       N  0.90524048  0.53462939  0.39535782    -0.23630
N1155       N  0.53938875  0.59840758  0.33812721    -0.23250
N1156       N  0.51666958  0.89929538  0.39236220     0.03790
C1157       C  0.86002744  0.49358895  0.30065871     0.45190
C1158       C  0.63328319  0.96001810  0.31487614    -0.04500
N1159       N  0.53304897  0.59695742  0.39901721    -0.23240
H1160       H  0.59745060  0.63009177  0.31548466     0.09340
N1161       N  0.86570655  0.97762475  0.32095045    -0.44470
H1162       H  0.64215351  0.92380428  0.30950255     0.09320
C1163       C  0.64450114  0.49566454  0.43476368     0.45020
C1164       C  0.93619216  0.87963888  0.31827240    -0.03990
Co1165     Co  0.55956985  0.93537791  0.36342138     0.73880
N1166       N  0.64019768  0.53760257  0.32084113    -0.44180
C1167       C  0.85934480  0.51468014  0.43140085     0.45290
N1168       N  0.53149268  0.87181111  0.41315869    -0.44180
Co1169     Co  0.57147512  0.55909267  0.36914545     0.73890
C1170       C  0.54840930  0.62273510  0.42081100    -0.04500
C1171       C  0.87888069  0.53853587  0.31139329    -0.04070
N1172       N  0.96637191  0.90330055  0.39825757    -0.23590
N1173       N  0.97287791  0.62450190  0.31031522    -0.44350
H1174       H  0.87393608  0.59220750  0.41926531     0.09300
C1175       C  0.62147546  0.95113485  0.41765821    -0.04480
Cl1176     Cl  0.00104298  0.49843691  0.36557566    -0.47480
C1177       C  0.65774691  0.50053709  0.30611594     0.45050
H1178       H  0.91425965  0.87253091  0.42616555     0.09260
N1179       N  0.62931137  0.53424407  0.42092117    -0.44190
C1180       C  0.49640319  0.77856006  0.49944347     0.03010
C1181       C  0.50120621  0.73086308  0.50102631     0.03010
C1182       C  0.76818251  0.00801893  0.50492094     0.03010
C1183       C  0.72062174  0.00276327  0.50370343     0.03010
C1184       C  0.49473434  0.74951321  0.25281141    -0.00040
C1185       C  0.96792824  0.81678664  0.28288384    -0.13990
C1186       C  0.00415926  0.79367627  0.27041212    -0.29160
H1187       H  0.93180380  0.80656089  0.27824421     0.15030
H1188       H  0.51006654  0.77943992  0.29599360     0.15610
C1189       C  0.01775741  0.67330214  0.27415329    -0.13990
C1190       C  0.98641986  0.70871207  0.26999910    -0.29160
H1191       H  0.56056580  0.70068917  0.28096032     0.15030
H1192       H  0.95459005  0.70964339  0.28297438     0.15610
C1193       C  0.50181026  0.70166359  0.47608274    -0.10830
C1194       C  0.00781716  0.67180338  0.45223061    -0.12390
C1195       C  0.99585672  0.82141190  0.45354047    -0.10830
C1196       C  0.49381035  0.80333963  0.47268284    -0.12390
C1197       C  0.69531909  0.99729035  0.47728399    -0.10830
C1198       C  0.67723825  0.49700853  0.45763613    -0.12390
C1199       C  0.82885877  0.51547886  0.45567124    -0.10830
C1200       C  0.79723825  0.00669332  0.48002880    -0.12390
C1201       C  0.67831750  0.50080692  0.54927017    -0.10830
C1202       C  0.69221546  0.00328981  0.52897095    -0.12390
C1203       C  0.82964866  0.50801255  0.54904680    -0.10830
C1204       C  0.79375273  0.01353593  0.53115902    -0.12390
C1205       C  0.50516520  0.70589683  0.52761124    -0.10830
C1206       C  0.00820492  0.67076345  0.54695045    -0.12390
C1207       C  0.99283600  0.82390400  0.54486094    -0.10830
C1208       C  0.49459856  0.80762273  0.52448272    -0.12390
C1209       C  0.56926965  0.77041253  0.22465996    -0.13990
C1210       C  0.53372975  0.74077676  0.23082353    -0.29160
H1211       H  0.57259106  0.80410247  0.23538347     0.15030
H1212       H  0.53047263  0.70889983  0.21807852     0.15610
C1213       C  0.91759194  0.73532335  0.22677817    -0.13990
C1214       C  0.95524826  0.76317267  0.23091384    -0.29160
H1215       H  0.91458447  0.70180427  0.23772235     0.15030
H1216       H  0.95882395  0.79486818  0.21809837     0.15610
C1217       C  0.74688677  0.54759232  0.02904864    -0.10830
C1218       C  0.74456682  0.57200523  0.04989452    -0.12390
C1219       C  0.75545150  0.91944456  0.04545655    -0.10830
C1220       C  0.75677056  0.94557511  0.02547936    -0.12390
C1221       C  0.75101108  0.54969471  0.97739284    -0.10830
C1222       C  0.75211436  0.57602507  0.95738807    -0.12390
C1223       C  0.75966220  0.94905852  0.97385992    -0.10830
C1224       C  0.75966539  0.92548798  0.95263241    -0.12390
C1225       C  0.00745389  0.70626740  0.73880100    -0.13990
C1226       C  0.01014128  0.69786474  0.71094978    -0.29160
H1227       H  0.00516062  0.67567843  0.75259038     0.15030
H1228       H  0.48963089  0.72790603  0.69648102     0.15610
C1229       C  0.98062013  0.82304002  0.72098831    -0.13990
C1230       C  0.01428213  0.79377917  0.73018718    -0.29160
H1231       H  0.94487209  0.82138696  0.72937434     0.15030
H1232       H  0.54279060  0.79653522  0.71686464     0.15610
C1233       C  0.54833995  0.76582474  0.77012024    -0.13990
C1234       C  0.55740075  0.73742442  0.79184549    -0.29160
H1235       H  0.57330893  0.79413881  0.76553849     0.15030
H1236       H  0.53414085  0.70783724  0.79638805     0.15610
C1237       C  0.96237503  0.76495318  0.77033921    -0.13990
C1238       C  0.92883884  0.73253045  0.77610194    -0.29160
H1239       H  0.96032452  0.79906115  0.78097047     0.15030
H1240       H  0.93039200  0.69745962  0.76684897     0.15610
C1241       C  0.78782023  0.48878911  0.73133712    -0.13990
C1242       C  0.82334717  0.51902538  0.72572512    -0.29160
H1243       H  0.78535617  0.45655804  0.71885227     0.15030
H1244       H  0.84596675  0.99144841  0.74946344     0.15610
C1245       C  0.67209923  0.48220704  0.72416874    -0.13990
C1246       C  0.70518870  0.51340973  0.73226738    -0.29160
H1247       H  0.69901479  0.95153287  0.71113930     0.15030
H1248       H  0.70639199  0.54773199  0.72196614     0.15610
C1249       C  0.75944990  0.53997174  0.77170359    -0.13990
C1250       C  0.72960590  0.57447734  0.77967781    -0.29160
H1251       H  0.79272385  0.53645215  0.78291268     0.15030
H1252       H  0.69417987  0.57620631  0.77108335     0.15610
C1253       C  0.74690162  0.95559817  0.76255636    -0.13990
C1254       C  0.76117354  0.94657518  0.78903827    -0.29160
H1255       H  0.73383860  0.92567349  0.75052604     0.15030
H1256       H  0.77860502  0.97369141  0.80137020     0.15610
C1257       C  0.54583115  0.75019751  0.02569224    -0.10830
C1258       C  0.57096385  0.74743811  0.04605011    -0.12390
C1259       C  0.94497793  0.74541591  0.02819168    -0.10830
C1260       C  0.92032646  0.74300754  0.04898941    -0.12390
C1261       C  0.54874657  0.75988297  0.97454437    -0.10830
C1262       C  0.57620124  0.76158642  0.95505323    -0.12390
C1263       C  0.94741022  0.74809818  0.97621602    -0.10830
C1264       C  0.92435964  0.74784772  0.95483822    -0.12390
C1265       C  0.79683947  0.51512223  0.26718631    -0.13990
C1266       C  0.82703746  0.48319752  0.27774718    -0.29160
H1267       H  0.79760927  0.55107245  0.27544014     0.15030
H1268       H  0.81816629  0.05937159  0.27544599     0.15610
C1269       C  0.70408480  0.50237923  0.29189778    -0.13990
C1270       C  0.70878578  0.49859442  0.26368619    -0.29160
H1271       H  0.72363779  0.03821190  0.29760820     0.15030
H1272       H  0.67691172  0.49366046  0.25131271     0.15610
C1273       C  0.75295966  0.53960590  0.22527387    -0.13990
C1274       C  0.73633944  0.58339888  0.23000825    -0.29160
H1275       H  0.76522469  0.53132324  0.20398616     0.15030
H1276       H  0.72135626  0.59353673  0.25026529     0.15610
C1277       C  0.76629923  0.95120428  0.23176233    -0.13990
C1278       C  0.73553136  0.94304736  0.21116548    -0.29160
H1279       H  0.79522580  0.92627813  0.23498562     0.15030
H1280       H  0.70527624  0.96634730  0.20833274     0.15610
loop_ 
_geom_bond_atom_site_label_1 
_geom_bond_atom_site_label_2 
_geom_bond_distance 
_geom_bond_site_symmetry_2 
_ccdc_geom_bond_type 
C1          C317   1.528       .  S
C1          C625   1.534       .  S
C1          C630   1.529       .  S
C1          C633   1.530       .  S
C2          C299   1.443   1_556  S
C2          C303   1.461       .  S
C2          C643   1.358   1_556  D
C3          C297   1.441       .  S
C3          C301   1.451   1_554  S
C3          C642   1.356   1_455  D
C4          C293   1.539       .  S
C4          C601   1.518       .  S
C4          C606   1.530       .  S
C4          C609   1.521       .  S
C5          C273   1.532   1_655  S
C5          C905   1.533       .  S
C5          C910   1.523       .  S
C5          C917   1.522       .  S
C6          C260   1.436   1_556  S
C6          C263   1.457       .  S
C6          C327   1.354   1_556  D
C7          C257   1.444   1_556  S
C7          C261   1.448       .  S
C7          C326   1.356   1_545  D
C8           N26   1.348       .  A
C8           C45   1.461       .  S
C8          C264   1.446       .  S
N9           N26   1.326       .  A
N9           N31   1.324       .  A
N9          Co46   2.096       .  S
C10          N35   1.334       .  A
C10          C48   1.446       .  S
C10          H55   1.082       .  S
H11          C52   1.082       .  S
C12          N36   1.343       .  A
C12          C16   1.458       .  S
C12          H41   1.081       .  S
Co13         N31   2.103       .  S
Co13         N21   2.090       .  S
Co13         N53   2.074       .  S
Co13         N29   2.112       .  S
Co13        Cl57   2.450       .  S
N14          C52   1.343       .  A
N14          N21   1.321       .  A
N14         Co15   2.086       .  S
Co15         N18   2.076       .  S
Co15         N35   2.060       .  S
Co15         N22   2.083       .  S
Co15        Cl57   2.457       .  S
C16          N54   1.346       .  A
C16         C262   1.437       .  S
N17          N24   1.323       .  A
N17          N47   1.326       .  A
N17         Co50   2.087       .  S
N18          N36   1.320       .  A
N18          N54   1.324       .  A
N19          C48   1.358       .  A
N19          N29   1.331       .  A
H20          C45   1.082       .  S
N21          N42   1.326       .  A
N22          N40   1.319       .  A
N22          N27   1.325       .  A
C23          N27   1.347       .  A
C23          C51   1.455       .  S
C23         C290   1.466       .  S
N24          C39   1.348       .  A
N24         Co46   2.115       .  S
C25          N53   1.335       .  A
C25          C28   1.449       .  S
C25          H59   1.082       .  S
C28          N49   1.360       .  A
C28         C294   1.481       .  S
N29          N35   1.318       .  A
N30          C56   1.350       .  A
N30          N32   1.321       .  A
N30         Co46   2.112       .  S
N31          C45   1.345       .  A
N32          N60   1.322       .  A
N32         Co50   2.080       .  S
H33          C56   1.082       .  S
H34          C51   1.081       .  S
N36         Co50   2.089       .  S
N37          N49   1.333       .  A
N37          N53   1.323       .  A
N37         Co46   2.125       .  S
C38          N42   1.348       .  A
C38          C52   1.457       .  S
C38         C302   1.440       .  S
C39          C58   1.464       .  S
C39          H43   1.081       .  S
N40          C51   1.342       .  A
N40         Co50   2.081       .  S
C44          N60   1.344       .  A
C44          C56   1.473       .  S
C44         C278   1.483       .  S
Co46        Cl57   2.463       .  S
N47          C58   1.348       .  A
C48         C274   1.470       .  S
Co50        Cl57   2.452       .  S
C58         C304   1.450       .  S
C61          N79   1.339       .  A
C61          C98   1.465       .  S
C61         C249   1.458       .  S
N62          N79   1.319       .  A
N62          N84   1.321       .  A
N62         Co99   2.045       .  S
C63          N88   1.335       .  A
C63         C101   1.446       .  S
C63         H108   1.082       .  S
H64         C105   1.082       .  S
C65          N89   1.340       .  A
C65          C69   1.465       .  S
C65          H94   1.082       .  S
Co66         N84   2.093       .  S
Co66         N74   2.072       .  S
Co66        N106   2.063       .  S
Co66         N82   2.101       .  S
Co66       Cl110   2.445       .  S
N67         C105   1.343       .  A
N67          N74   1.319       .  A
N67         Co68   2.091       .  S
Co68         N71   2.052       .  S
Co68         N88   2.059       .  S
Co68         N75   2.101       .  S
Co68       Cl110   2.447       .  S
C69         N107   1.340       .  A
C69         C253   1.462       .  S
N70          N77   1.319       .  A
N70         N100   1.320       .  A
N70        Co103   2.059       .  S
N71          N89   1.319       .  A
N71         N107   1.320       .  A
N72         C101   1.352       .  A
N72          N82   1.328       .  A
H73          C98   1.081       .  S
N74          N95   1.323       .  A
N75          N93   1.320       .  A
N75          N80   1.328       .  A
C76          N80   1.352       .  A
C76         C104   1.444       .  S
C76         C300   1.431       .  S
N77          C92   1.347       .  A
N77         Co99   2.103       .  S
C78         N106   1.336       .  A
C78          C81   1.446       .  S
C78         H112   1.082       .  S
C81         N102   1.350       .  A
C81         C298   1.430       .  S
N82          N88   1.320       .  A
N83         C109   1.333       .  A
N83          N85   1.320       .  A
N83         Co99   2.052       .  S
N84          C98   1.338       .  A
N85         N113   1.327       .  A
N85        Co103   2.097       .  S
H86         C109   1.082       .  S
H87         C104   1.082       .  S
N89        Co103   2.092       .  S
N90         N102   1.327       .  A
N90         N106   1.321       .  A
N90         Co99   2.098       .  S
C91          N95   1.347       .  A
C91         C105   1.463       .  S
C91         C314   1.471       .  S
C92         C111   1.468       .  S
C92          H96   1.082       .  S
N93         C104   1.334       .  A
N93        Co103   2.056       .  S
C97         N113   1.351       .  A
C97         C109   1.442       .  S
C97         C259   1.425       .  S
Co99       Cl110   2.447       .  S
N100        C111   1.342       .  A
C101        C258   1.432       .  S
Co103      Cl110   2.447       .  S
C111        C318   1.470       .  S
C114        N452   1.346       .  A
C114        C151   1.465   1_565  S
C114        C285   1.469       .  S
N115        N132   1.319       .  A
N115        N457   1.320       .  A
N115       Co152   2.060       .  S
C116        N141   1.339       .  A
C116        C154   1.452       .  S
C116        H161   1.081       .  S
H117        C158   1.081       .  S
C118        N142   1.339       .  A
C118        C442   1.448       .  S
C118        H147   1.081       .  S
Co119       N137   2.096       .  S
Co119       N127   2.067       .  S
Co119       N159   2.082       .  S
Co119       N135   2.094       .  S
Co119      Cl803   2.446   1_545  S
N120        C158   1.335       .  A
N120        N767   1.320       .  A
N120       Co121   2.075       .  S
Co121       N124   2.084       .  S
Co121       N141   2.079       .  S
Co121       N128   2.097       .  S
Co121      Cl163   2.445       .  S
C122        N160   1.349       .  A
C122        C438   1.449   1_545  S
C122        C282   1.463       .  S
N123        N153   1.319       .  A
N123        N770   1.317       .  A
N123       Co156   2.051       .  S
N124        N160   1.326       .  A
N124        N462   1.320   1_545  A
N125        C794   1.348       .  A
N125        N135   1.326       .  A
H126        C151   1.082       .  S
N127        N148   1.321       .  A
N127        N760   1.320   1_455  A
N128        N133   1.328       .  A
N128        N466   1.319   1_545  A
C129        N133   1.351       .  A
C129        C477   1.450   1_545  S
C129        C243   1.439       .  S
N130        C145   1.341       .  A
N130        N763   1.321   1_455  A
N130       Co152   2.093       .  S
C131        N159   1.341       .  A
C131        C134   1.453   1_545  S
C131        H165   1.082       .  S
N132        C434   1.340       .  A
C134        N475   1.350       .  A
C134        C241   1.441       .  S
N135        N781   1.323   1_455  A
N136        C162   1.337       .  A
N136        N778   1.321   1_455  A
N136       Co152   2.068       .  S
N137        C151   1.345       .  A
N137        N435   1.319   1_545  A
N138        N166   1.325       .  A
N138        N776   1.321       .  A
N138       Co156   2.085       .  S
H139        C162   1.082       .  S
H140        C157   1.082       .  S
N141        N775   1.323       .  A
N142        N444   1.320       .  A
N142       Co156   2.075       .  S
N143        N155   1.329       .  A
N143        N479   1.321       .  A
N143       Co152   2.105       .  S
C144        N788   1.359       .  A
C144        C158   1.448       .  S
C144        C266   1.479       .  S
C145        C804   1.454   1_455  S
C145        H149   1.081       .  S
N146        C157   1.337       .  A
N146        N448   1.319       .  A
N146       Co156   2.061       .  S
N148        C784   1.343       .  A
C150        N166   1.348       .  A
C150        C802   1.452       .  S
C150        C247   1.432       .  S
Co152     Cl1123   2.441       .  S
N153        C164   1.339       .  A
C154        N765   1.350       .  A
C154        C246   1.439       .  S
N155        C454   1.353       .  A
Co156      Cl483   2.453       .  S
C157        C449   1.447       .  S
N159        N463   1.320   1_545  A
C162        C790   1.449   1_455  S
Cl163      Co759   2.463       .  S
Cl163     Co1112   2.442   1_545  S
Cl163      Co476   2.452   1_545  S
C164        C785   1.463       .  S
C164        C269   1.458       .  S
C167        N825   1.340       .  A
C167        C204   1.474       .  S
C167        C225   1.485       .  S
N168        N185   1.329       .  A
N168        N830   1.319   1_455  A
N168       Co205   2.092       .  S
C169        N194   1.341       .  A
C169        C207   1.454       .  S
C169        H214   1.082       .  S
H170        C211   1.081       .  S
C171        N195   1.346       .  A
C171        C815   1.478   1_455  S
C171        H200   1.082       .  S
Co172       N190   2.105       .  S
Co172       N180   2.108       .  S
Co172       N212   2.093       .  S
Co172       N188   2.103       .  S
Co172      Cl536   2.462       .  S
N173        C211   1.342       .  A
N173        N500   1.320   1_545  A
N173       Co174   2.091       .  S
Co174       N177   2.086       .  S
Co174       N194   2.088       .  S
Co174       N181   2.089       .  S
Co174      Cl216   2.458       .  S
C175        N213   1.351       .  A
C175        C811   1.450       .  S
C175        C229   1.465       .  S
N176        N206   1.329       .  A
N176        N503   1.322   1_545  A
N176       Co209   2.105       .  S
N177        N213   1.327       .  A
N177        N835   1.320       .  A
N178        C527   1.351       .  A
N178        N188   1.328       .  A
H179        C204   1.082       .  S
N180        N201   1.331       .  A
N180        N493   1.321       .  A
N181        N186   1.326       .  A
N181        N839   1.320       .  A
C182        N186   1.349       .  A
C182        C850   1.450       .  S
C182        C234   1.433       .  S
N183        C198   1.336       .  A
N183        N496   1.320       .  A
N183       Co205   2.071       .  S
C184        N212   1.343       .  A
C184        C187   1.456       .  S
C184        H218   1.082       .  S
N185        C807   1.354   1_455  A
C187        N848   1.347       .  A
C187        C235   1.438       .  S
N188        N514   1.322       .  A
N189        C215   1.339       .  A
N189        N511   1.321       .  A
N189       Co205   2.078       .  S
N190        C204   1.344       .  A
N190        N808   1.322       .  A
N191        N219   1.325       .  A
N191        N509   1.322   1_545  A
N191       Co209   2.084       .  S
H192        C215   1.081       .  S
H193        C210   1.081       .  S
N194        N508   1.322   1_545  A
N195        N817   1.319   1_455  A
N195       Co209   2.102       .  S
N196        N208   1.324       .  A
N196        N852   1.319   1_455  A
N196       Co205   2.080       .  S
C197        N521   1.350   1_545  A
C197        C211   1.457       .  S
C197        C306   1.475       .  S
C198        C537   1.451       .  S
C198        H202   1.082       .  S
N199        C210   1.344       .  A
N199        N821   1.321   1_455  A
N199       Co209   2.100       .  S
N201        C517   1.357       .  A
C203        N219   1.346   1_565  A
C203        C535   1.458       .  S
C203        C238   1.440       .  S
Co205     Cl1176   2.456       .  S
N206        C217   1.356   1_545  A
C207        N498   1.350   1_545  A
C207        C239   1.440       .  S
N208        C827   1.346   1_455  A
Co209      Cl856   2.463   1_445  S
C210        C822   1.459       .  S
N212        N836   1.322       .  A
C215        C523   1.451       .  S
Cl216      Co492   2.453   1_545  S
Cl216     Co1165   2.463   1_545  S
Cl216      Co849   2.440       .  S
C217        C518   1.448       .  S
C217        C309   1.472       .  S
C220        C236   1.445   1_455  S
C220        C248   1.443   1_455  S
C220        C221   1.354       .  D
C221        C233   1.445       .  S
C221        C245   1.446       .  S
C222        C240   1.456       .  S
C222        C244   1.445       .  S
C222        C223   1.358       .  D
C223        C237   1.444       .  S
C223        C242   1.455       .  S
C224        C250   1.506       .  S
C224        C866   1.528       .  S
C224        C870   1.524       .  S
C224        C894   1.538   1_455  S
C225        C226   1.320       .  D
C225        H227   1.195       .  S
C226        C864   1.525       .  S
C226        H868   1.197       .  S
H228        C866   1.088       .  S
C229        C230   1.346       .  D
C229        H871   1.085       .  S
C230        C864   1.534       .  S
C230        H232   1.087       .  S
H231        C869   1.198   1_455  S
C233        C874   1.205       .  T
C234        C873   1.205       .  T
C235        C876   1.207       .  T
C236        C875   1.205       .  T
C237        C558   1.205       .  T
C238        C557   1.208       .  T
C239        C560   1.208       .  T
C240        C559   1.211       .  T
C241        C562   1.209       .  T
C242        C561   1.211       .  T
C243        C564   1.208       .  T
C244        C563   1.205       .  T
C245        C886   1.205       .  T
C246        C885   1.208       .  T
C247        C888   1.204       .  T
C248        C887   1.203       .  T
C249        C250   1.331       .  D
C249        H251   1.086       .  S
C250        H252   1.090       .  S
C253        C254   1.335       .  D
C253        H255   1.085       .  S
C254        C864   1.504       .  S
C254        H256   1.090       .  S
C257        C258   1.204       .  T
C259        C260   1.200       .  T
C261        C262   1.207       .  T
C263        C264   1.212       .  T
C265        C645   1.537       .  S
C265        C266   1.342       .  D
C265        H267   1.088       .  S
C266        H908   1.087       .  S
H268        C906   1.087       .  S
C269        C270   1.336       .  D
C269        H271   1.085       .  S
C270        C645   1.514       .  S
C270        H912   1.088       .  S
H272        C910   1.089       .  S
C273        C274   1.342       .  D
C273        H275   1.087       .  S
C274        H276   1.087       .  S
C277        C645   1.542       .  S
C277        C278   1.344       .  D
C277        H279   1.088       .  S
C278        H280   1.084       .  S
C281        C324   1.520   1_545  S
C281        C282   1.335       .  D
C281        H283   1.090       .  S
C282        H604   1.086   1_545  S
H284        C602   1.086       .  S
C285        C286   1.345   1_565  D
C285        H607   1.087       .  S
C286        C324   1.530   1_545  S
C286        H288   1.087       .  S
H287        C605   1.087       .  S
C289        C324   1.522   1_545  S
C289        C290   1.338       .  D
C289        H291   1.090       .  S
C290        H292   1.085       .  S
C293        C294   1.343       .  D
C293        H295   1.087       .  S
C294        H296   1.084       .  S
C297        C298   1.203       .  T
C299        C300   1.204       .  T
C301        C302   1.209       .  T
C303        C304   1.214       .  T
C305        C321   1.541   1_565  S
C305        C306   1.349   1_565  D
C305        H307   1.089       .  S
C306        H628   1.082       .  S
H308        C626   1.087       .  S
C309        C310   1.345   1_565  D
C309        H631   1.084       .  S
C310        C321   1.533       .  S
C310        H312   1.088       .  S
H311        C629   1.087       .  S
C313        C321   1.530       .  S
C313        C314   1.344       .  D
C313        H315   1.082       .  S
C314        H316   1.086       .  S
C317        C318   1.339       .  D
C317        H319   1.088       .  S
C318        H320   1.087       .  S
C321        C637   1.540   1_545  S
C322        C619   1.449   1_556  S
C322        C623   1.450       .  S
C322        C963   1.355       .  D
C323        C617   1.448       .  S
C323        C621   1.444   1_554  S
C323        C962   1.357   1_455  D
C324        C613   1.532       .  S
C325       C1225   1.539       .  S
C325       C1230   1.521       .  S
C325        C593   1.511       .  S
C325       C1237   1.536   1_455  S
C326        C580   1.452   1_556  S
C326        C583   1.448       .  S
C327        C577   1.454       .  S
C327        C581   1.432   1_554  S
C328        N346   1.349       .  A
C328        C365   1.453       .  S
C328        C584   1.437       .  S
N329        N346   1.327       .  A
N329        N351   1.322       .  A
N329       Co366   2.094       .  S
C330        N355   1.333       .  A
C330        C368   1.443       .  S
C330        H375   1.082       .  S
H331        C372   1.082       .  S
C332        N356   1.341       .  A
C332        C336   1.456       .  S
C332        H361   1.081       .  S
Co333       N351   2.082       .  S
Co333       N341   2.083       .  S
Co333       N373   2.070       .  S
Co333       N349   2.088       .  S
Co333      Cl377   2.443       .  S
N334        C372   1.339       .  A
N334        N341   1.319       .  A
N334       Co335   2.072       .  S
Co335       N338   2.050       .  S
Co335       N355   2.050       .  S
Co335       N342   2.070       .  S
Co335      Cl377   2.450       .  S
C336        N374   1.340       .  A
C336        C582   1.422       .  S
N337        N344   1.322       .  A
N337        N367   1.324       .  A
N337       Co370   2.083       .  S
N338        N356   1.319       .  A
N338        N374   1.319       .  A
N339        C368   1.352       .  A
N339        N349   1.324       .  A
H340        C365   1.081       .  S
N341        N362   1.325       .  A
N342        N360   1.319       .  A
N342        N347   1.320       .  A
C343        N347   1.343       .  A
C343        C371   1.462       .  S
C343        C610   1.463       .  S
N344        C359   1.344       .  A
N344       Co366   2.097       .  S
C345        N373   1.334       .  A
C345        C348   1.449       .  S
C345        H379   1.082       .  S
C348        N369   1.357       .  A
C348        C614   1.471       .  S
N349        N355   1.318       .  A
N350        C376   1.346       .  A
N350        N352   1.322       .  A
N350       Co366   2.100       .  S
N351        C365   1.340       .  A
N352        N380   1.324       .  A
N352       Co370   2.085       .  S
H353        C376   1.082       .  S
H354        C371   1.081       .  S
N356       Co370   2.086       .  S
N357        N369   1.330       .  A
N357        N373   1.321       .  A
N357       Co366   2.110       .  S
C358        N362   1.347       .  A
C358        C372   1.453       .  S
C358        C622   1.433       .  S
C359        C378   1.458       .  S
C359        H363   1.081       .  S
N360        C371   1.342       .  A
N360       Co370   2.083       .  S
C364        N380   1.347       .  A
C364        C376   1.467       .  S
C364        C598   1.478       .  S
Co366      Cl377   2.458       .  S
N367        C378   1.346       .  A
C368        C594   1.455       .  S
Co370      Cl377   2.445       .  S
C378        C624   1.439       .  S
C381        N399   1.342       .  A
C381        C418   1.469       .  S
C381        C569   1.472       .  S
N382        N399   1.320       .  A
N382        N404   1.322       .  A
N382       Co419   2.065       .  S
C383        N408   1.337       .  A
C383        C421   1.448       .  S
C383        H428   1.082       .  S
H384        C425   1.081       .  S
C385        N409   1.345       .  A
C385        C389   1.465       .  S
C385        H414   1.081       .  S
Co386       N404   2.111       .  S
Co386       N394   2.071       .  S
Co386       N426   2.068       .  S
Co386       N402   2.117       .  S
Co386      Cl430   2.457       .  S
N387        C425   1.346       .  A
N387        N394   1.320       .  A
N387       Co388   2.100       .  S
Co388       N391   2.067       .  S
Co388       N408   2.068       .  S
Co388       N395   2.100       .  S
Co388      Cl430   2.449       .  S
C389        N427   1.344       .  A
C389        C573   1.466       .  S
N390        N397   1.319       .  A
N390        N420   1.325       .  A
N390       Co423   2.077       .  S
N391        N409   1.320       .  A
N391        N427   1.320       .  A
N392        C421   1.356       .  A
N392        N402   1.331       .  A
H393        C418   1.082       .  S
N394        N415   1.322       .  A
N395        N413   1.321       .  A
N395        N400   1.328       .  A
C396        N400   1.351       .  A
C396        C424   1.450       .  S
C396        C620   1.438       .  S
N397        C412   1.347       .  A
N397       Co419   2.107       .  S
C398        N426   1.338       .  A
C398        C401   1.449       .  S
C398        H432   1.082       .  S
C401        N422   1.352       .  A
C401        C618   1.438       .  S
N402        N408   1.321       .  A
N403        C429   1.339       .  A
N403        N405   1.321       .  A
N403       Co419   2.071       .  S
N404        C418   1.347       .  A
N405        N433   1.328       .  A
N405       Co423   2.107       .  S
H406        C429   1.082       .  S
H407        C424   1.082       .  S
N409       Co423   2.096       .  S
N410        N422   1.328       .  A
N410        N426   1.322       .  A
N410       Co419   2.107       .  S
C411        N415   1.345       .  A
C411        C425   1.466       .  S
C411        C634   1.472       .  S
C412        C431   1.468       .  S
C412        H416   1.082       .  S
N413        C424   1.339       .  A
N413       Co423   2.073       .  S
C417        N433   1.352       .  A
C417        C429   1.451       .  S
C417        C579   1.441       .  S
Co419      Cl430   2.451       .  S
N420        C431   1.347       .  A
C421        C578   1.444       .  S
Co423      Cl430   2.456       .  S
C431        C638   1.482       .  S
C434        C471   1.472       .  S
C434        C605   1.470       .  S
N435        N452   1.322       .  A
N435       Co472   2.075       .  S
C436        N461   1.339       .  A
C436        C474   1.451       .  S
C436        H481   1.081       .  S
H437        C478   1.082       .  S
C438        N462   1.339       .  A
C438        H467   1.080       .  S
Co439       N457   2.108       .  S
Co439       N447   2.083       .  S
Co439       N479   2.081       .  S
Co439       N455   2.103       .  S
Co439     Cl1123   2.461       .  S
N440        C478   1.339       .  A
N440       N1087   1.318       .  A
N440       Co441   2.083       .  S
Co441       N444   2.079       .  S
Co441       N461   2.077       .  S
Co441       N448   2.098       .  S
Co441      Cl483   2.447       .  S
C442        N480   1.347       .  A
C442        C602   1.458       .  S
N443       N1090   1.317       .  A
N443        N473   1.320       .  A
N443       Co476   2.059       .  S
N444        N480   1.325       .  A
N445       C1114   1.351       .  A
N445        N455   1.328       .  A
H446        C471   1.082       .  S
N447       N1080   1.319   1_455  A
N447        N468   1.324       .  A
N448        N453   1.328       .  A
C449        N453   1.351       .  A
C449        C563   1.434       .  S
N450        C465   1.343       .  A
N450       N1083   1.319   1_455  A
N450       Co472   2.092       .  S
C451        N479   1.340       .  A
C451        C454   1.451       .  S
C451        H485   1.082       .  S
C454        C561   1.444       .  S
N455       N1101   1.321   1_455  A
N456        C482   1.338       .  A
N456       N1098   1.321   1_455  A
N456       Co472   2.073       .  S
N457        C471   1.348       .  A
N458       N1096   1.320       .  A
N458        N486   1.325       .  A
N458       Co476   2.084       .  S
H459        C482   1.082       .  S
H460        C477   1.082       .  S
N461       N1095   1.323       .  A
N462       Co476   2.077       .  S
N463        N475   1.327       .  A
N463       Co472   2.094       .  S
C464       N1108   1.354       .  A
C464        C478   1.458       .  S
C464        C586   1.470       .  S
C465       C1124   1.467   1_455  S
C465        H469   1.081       .  S
N466        C477   1.338       .  A
N466       Co476   2.067       .  S
N468       C1104   1.350       .  A
C470        N486   1.348       .  A
C470       C1122   1.452       .  S
C470        C567   1.433       .  S
Co472      Cl803   2.455       .  S
N473        C484   1.340       .  A
C474       N1085   1.352       .  A
C474        C566   1.441       .  S
C482       C1110   1.449   1_455  S
Cl483     Co1079   2.455       .  S
Cl483      Co792   2.445       .  S
C484       C1105   1.463       .  S
C484        C589   1.462       .  S
C487       N1145   1.352       .  A
C487        C524   1.453       .  S
C487        C545   1.471       .  S
N488        N505   1.328       .  A
N488       N1150   1.320   1_455  A
N488       Co525   2.094       .  S
C489        N514   1.342       .  A
C489        C527   1.455       .  S
C489        H534   1.081       .  S
H490        C531   1.082       .  S
C491        N515   1.336       .  A
C491       C1135   1.451       .  S
C491        H520   1.082       .  S
Co492       N510   2.086       .  S
Co492       N500   2.091       .  S
Co492       N532   2.095       .  S
Co492       N508   2.094       .  S
N493        C531   1.334       .  A
N493       Co494   2.072       .  S
Co494       N497   2.093       .  S
Co494       N514   2.089       .  S
Co494       N501   2.081       .  S
Co494      Cl536   2.446       .  S
C495        N533   1.353       .  A
C495       C1131   1.446       .  S
C495        C549   1.462       .  S
N496        N526   1.328       .  A
N496       Co529   2.095       .  S
N497       N1155   1.319       .  A
N497        N533   1.326       .  A
N498        N508   1.327       .  A
H499        C524   1.081       .  S
N500        N521   1.328       .  A
N501       N1159   1.320       .  A
N501        N506   1.325       .  A
C502        N506   1.347       .  A
C502       C1170   1.451       .  S
C502        C554   1.430       .  S
N503        C518   1.335       .  A
N503       Co525   2.073       .  S
C504        N532   1.344       .  A
C504        C507   1.457       .  S
C504        H538   1.082       .  S
N505       C1127   1.353   1_455  A
C507       N1168   1.349       .  A
C507        C555   1.443       .  S
N509        C535   1.344       .  A
N509       Co525   2.098       .  S
N510        C524   1.340       .  A
N510       N1128   1.322       .  A
N511        N539   1.325       .  A
N511       Co529   2.088       .  S
H512        C535   1.081       .  S
H513        C530   1.081       .  S
N515       N1137   1.322   1_455  A
N515       Co529   2.080       .  S
N516        N528   1.325       .  A
N516       N1172   1.321   1_455  A
N516       Co525   2.086       .  S
C517        C531   1.449       .  S
C517        C626   1.475       .  S
C518        H522   1.082       .  S
N519        C530   1.342       .  A
N519       N1141   1.322   1_455  A
N519       Co529   2.093       .  S
C523        N539   1.348       .  A
C523        C558   1.433       .  S
Co525      Cl856   2.442   1_455  S
N526        C537   1.353       .  A
C527        C559   1.445       .  S
N528       C1147   1.348   1_455  A
Co529     Cl1176   2.442       .  S
C530       C1142   1.455       .  S
N532       N1156   1.322       .  A
Cl536      Co845   2.446       .  S
Cl536     Co1169   2.452       .  S
C537        C629   1.470       .  S
C540        C556   1.446       .  S
C540        C568   1.445       .  S
C540        C541   1.356   1_655  D
C541        C553   1.449       .  S
C541        C565   1.451       .  S
C542        C560   1.451       .  S
C542        C564   1.450       .  S
C542        C543   1.358   1_545  D
C543        C557   1.450       .  S
C543        C562   1.451       .  S
C544       C1186   1.530   1_655  S
C544       C1190   1.541       .  S
C544        C570   1.534   1_655  S
C544       C1214   1.531       .  S
C545        C546   1.341       .  D
C545        H547   1.085       .  S
C546       C1184   1.534       .  S
C546       H1188   1.090       .  S
H548       C1186   1.085       .  S
C549        C550   1.339       .  D
C549       H1191   1.087       .  S
C550       C1184   1.522       .  S
C550        H552   1.088       .  S
H551       C1189   1.084       .  S
C553       C1194   1.207       .  T
C554       C1193   1.203       .  T
C555       C1196   1.210       .  T
C556       C1195   1.205       .  T
C565       C1206   1.209       .  T
C566       C1205   1.209       .  T
C567       C1208   1.204       .  T
C568       C1207   1.205       .  T
C569        C570   1.342       .  D
C569        H571   1.083       .  S
C570        H572   1.088       .  S
C573        C574   1.343       .  D
C573        H575   1.086       .  S
C574       C1184   1.526       .  S
C574        H576   1.086       .  S
C577        C578   1.211       .  T
C579        C580   1.209       .  T
C581        C582   1.198       .  T
C583        C584   1.207       .  T
C585        C965   1.543       .  S
C585        C586   1.347       .  D
C585        H587   1.087       .  S
C586       H1228   1.084       .  S
H588       C1226   1.084       .  S
C589        C590   1.337       .  D
C589        H591   1.085       .  S
C590        C965   1.520       .  S
C590       H1232   1.089       .  S
H592       C1230   1.088       .  S
C593        C594   1.335       .  D
C593        H595   1.090       .  S
C594        H596   1.085       .  S
C597        C965   1.538       .  S
C597        C598   1.348       .  D
C597        H599   1.087       .  S
C598        H600   1.084       .  S
C601        C602   1.335       .  D
C601        H603   1.090       .  S
C605        C606   1.338       .  D
C606        H608   1.088       .  S
C609        C610   1.340       .  D
C609        H611   1.088       .  S
C610        H612   1.084       .  S
C613        C614   1.342       .  D
C613        H615   1.087       .  S
C614        H616   1.087       .  S
C617        C618   1.207       .  T
C619        C620   1.207       .  T
C621        C622   1.204       .  T
C623        C624   1.208       .  T
C625        C626   1.344       .  D
C625        H627   1.087       .  S
C629        C630   1.343       .  D
C630        H632   1.087       .  S
C633        C634   1.343       .  D
C633        H635   1.087       .  S
C634        H636   1.087       .  S
C637        C638   1.346       .  D
C637        H639   1.087       .  S
C638        H640   1.084       .  S
C641       C1265   1.530       .  S
C641       C1270   1.542       .  S
C641       C1273   1.515       .  S
C641        C957   1.538       .  S
C642        C939   1.455       .  S
C642        C943   1.445   1_554  S
C643        C937   1.457       .  S
C643        C941   1.438   1_554  S
C644       C1241   1.532       .  S
C644       C1246   1.530       .  S
C644       C1249   1.527       .  S
C644        C933   1.530       .  S
C645        C913   1.512       .  S
C646        C900   1.452       .  S
C646        C903   1.449   1_554  S
C646        C967   1.357       .  D
C647        C897   1.446       .  S
C647        C901   1.441   1_554  S
C647        C966   1.353   1_545  D
C648        N666   1.349       .  A
C648        C685   1.454       .  S
C648        C904   1.438       .  S
N649        N666   1.326       .  A
N649        N671   1.321       .  A
N649       Co686   2.090       .  S
C650        N675   1.331       .  A
C650        C688   1.440       .  S
C650        H695   1.082       .  S
H651        C692   1.082       .  S
C652        N676   1.340       .  A
C652        C656   1.454       .  S
C652        H681   1.081       .  S
Co653       N671   2.086       .  S
Co653       N661   2.088       .  S
Co653       N693   2.101       .  S
Co653       N669   2.095       .  S
Co653      Cl697   2.461       .  S
N654        C692   1.337       .  A
N654        N661   1.321       .  A
N654       Co655   2.068       .  S
Co655       N658   2.071       .  S
Co655       N675   2.055       .  S
Co655       N662   2.067       .  S
Co655      Cl697   2.434       .  S
C656        N694   1.345       .  A
C656        C902   1.429       .  S
N657        N664   1.321       .  A
N657        N687   1.325       .  A
N657       Co690   2.091       .  S
N658        N676   1.320       .  A
N658        N694   1.323       .  A
N659        C688   1.354       .  A
N659        N669   1.326       .  A
H660        C685   1.082       .  S
N661        N682   1.324       .  A
N662        N680   1.319       .  A
N662        N667   1.320       .  A
C663        N667   1.342       .  A
C663        C691   1.467       .  S
C663        C930   1.467       .  S
N664        C679   1.340       .  A
N664       Co686   2.074       .  S
C665        N693   1.349       .  A
C665        C668   1.470       .  S
C665        H699   1.082       .  S
C668        N689   1.339       .  A
C668        C934   1.468       .  S
N669        N675   1.321       .  A
N670        C696   1.338       .  A
N670        N672   1.320       .  A
N670       Co686   2.075       .  S
N671        C685   1.341       .  A
N672        N700   1.326       .  A
N672       Co690   2.087       .  S
H673        C696   1.081       .  S
H674        C691   1.082       .  S
N676       Co690   2.082       .  S
N677        N689   1.319       .  A
N677        N693   1.320       .  A
N677       Co686   2.065       .  S
C678        N682   1.347       .  A
C678        C692   1.450       .  S
C678        C942   1.428       .  S
C679        C698   1.453       .  S
C679        H683   1.081       .  S
N680        C691   1.346       .  A
N680       Co690   2.092       .  S
C684        N700   1.350       .  A
C684        C696   1.450       .  S
C684        C918   1.463       .  S
Co686      Cl697   2.440       .  S
N687        C698   1.347       .  A
C688        C914   1.457       .  S
Co690      Cl697   2.457       .  S
C698        C944   1.434       .  S
C701        N719   1.338       .  A
C701        C738   1.470       .  S
C701        C889   1.468       .  S
N702        N719   1.319       .  A
N702        N724   1.318       .  A
N702       Co739   2.057       .  S
C703        N728   1.339       .  A
C703        C741   1.450       .  S
C703        H748   1.082       .  S
H704        C745   1.081       .  S
C705        N729   1.349       .  A
C705        C709   1.472       .  S
C705        H734   1.082       .  S
Co706       N724   2.099       .  S
Co706       N714   2.089       .  S
Co706       N746   2.089       .  S
Co706       N722   2.096       .  S
Co706      Cl750   2.466       .  S
N707        C745   1.348       .  A
N707        N714   1.322       .  A
N707       Co708   2.112       .  S
Co708       N711   2.072       .  S
Co708       N728   2.073       .  S
Co708       N715   2.112       .  S
Co708      Cl750   2.443       .  S
C709        N747   1.343       .  A
C709        C893   1.479       .  S
N710        N717   1.321       .  A
N710        N740   1.331       .  A
N710       Co743   2.100       .  S
N711        N729   1.322       .  A
N711        N747   1.321       .  A
N712        C741   1.350       .  A
N712        N722   1.327       .  A
H713        C738   1.081       .  S
N714        N735   1.326       .  A
N715        N733   1.323       .  A
N715        N720   1.329       .  A
C716        N720   1.353       .  A
C716        C744   1.452       .  S
C716        C940   1.445       .  S
N717        C732   1.335       .  A
N717       Co739   2.077       .  S
C718        N746   1.342       .  A
C718        C721   1.456       .  S
C718        H752   1.082       .  S
C721        N742   1.352       .  A
C721        C938   1.447       .  S
N722        N728   1.321       .  A
N723        C749   1.339       .  A
N723        N725   1.321       .  A
N723       Co739   2.070       .  S
N724        C738   1.347       .  A
N725        N753   1.329       .  A
N725       Co743   2.108       .  S
H726        C749   1.082       .  S
H727        C744   1.082       .  S
N729       Co743   2.112       .  S
N730        N742   1.329       .  A
N730        N746   1.321       .  A
N730       Co739   2.099       .  S
C731        N735   1.349       .  A
C731        C745   1.470       .  S
C731        C954   1.489       .  S
C732        C751   1.444       .  S
C732        H736   1.081       .  S
N733        C744   1.341       .  A
N733       Co743   2.083       .  S
C737        N753   1.352       .  A
C737        C749   1.451       .  S
C737        C899   1.441       .  S
Co739      Cl750   2.441       .  S
N740        C751   1.356       .  A
C741        C898   1.435       .  S
Co743      Cl750   2.470       .  S
C751        C958   1.471       .  S
C754       N1092   1.341       .  A
C754        C791   1.470   1_565  S
C754        C925   1.468       .  S
N755        N772   1.321       .  A
N755       N1097   1.322       .  A
N755       Co792   2.072       .  S
C756        N781   1.340       .  A
C756        C794   1.453   1_655  S
C756        H801   1.082       .  S
H757        C798   1.082       .  S
C758        N782   1.345       .  A
C758       C1082   1.465       .  S
C758        H787   1.082       .  S
Co759       N777   2.107       .  S
Co759       N767   2.111       .  S
Co759       N799   2.087       .  S
Co759       N775   2.104       .  S
N760        C798   1.346       .  A
N760       Co761   2.106       .  S
Co761       N764   2.093       .  S
Co761       N781   2.084       .  S
Co761       N768   2.111       .  S
Co761      Cl803   2.459   1_645  S
C762        N800   1.352   1_565  A
C762       C1078   1.449       .  S
C762        C922   1.468       .  S
N763        N793   1.326       .  A
N763       Co796   2.083       .  S
N764       N1102   1.320   1_545  A
N764        N800   1.327       .  A
N765        N775   1.328       .  A
H766        C791   1.081       .  S
N767        N788   1.332       .  A
N768       N1106   1.321   1_545  A
N768        N773   1.329       .  A
C769        N773   1.353       .  A
C769       C1117   1.449   1_545  S
C769        C883   1.441       .  S
N770        C785   1.341       .  A
N770       Co792   2.081       .  S
C771        N799   1.340       .  A
C771        C774   1.452       .  S
C771        H805   1.081       .  S
N772       C1074   1.343       .  A
C774       N1115   1.345   1_545  A
C774        C881   1.429       .  S
N776        C802   1.339       .  A
N776       Co792   2.080       .  S
N777        C791   1.348       .  A
N777       N1075   1.322   1_545  A
N778        N806   1.326       .  A
N778       Co796   2.092       .  S
H779        C802   1.082       .  S
H780        C797   1.082       .  S
N782       N1084   1.320       .  A
N782       Co796   2.094       .  S
N783        N795   1.325       .  A
N783       N1119   1.322       .  A
N783       Co792   2.082       .  S
C784        C798   1.469   1_455  S
C784        C906   1.472       .  S
C785        H789   1.081       .  S
N786        C797   1.340       .  A
N786       N1088   1.321       .  A
N786       Co796   2.078       .  S
C790        N806   1.349       .  A
C790        C887   1.431       .  S
N793        C804   1.349       .  A
C794        C886   1.435       .  S
N795       C1094   1.346       .  A
Co796     Cl1123   2.466   1_655  S
C797       C1089   1.453       .  S
N799       N1103   1.322   1_545  A
Cl803     Co1116   2.445   1_455  S
C804        C909   1.467       .  S
C807        C844   1.444       .  S
C807        C865   1.462       .  S
N808        N825   1.320       .  A
N808       Co845   2.064       .  S
C809        N834   1.337       .  A
C809        C847   1.450       .  S
C809        H854   1.082       .  S
H810        C851   1.081       .  S
C811        N835   1.336       .  A
C811        H840   1.081       .  S
Co812       N830   2.061       .  S
Co812       N820   2.066       .  S
Co812       N852   2.079       .  S
Co812       N828   2.070       .  S
Co812     Cl1176   2.436   1_655  S
N813        C851   1.335       .  A
N813       N1140   1.319   1_545  A
N813       Co814   2.060       .  S
Co814       N817   2.048       .  S
Co814       N834   2.064       .  S
Co814       N821   2.067       .  S
Co814      Cl856   2.439   1_545  S
C815        N853   1.334       .  A
C815        C869   1.481       .  S
N816       N1143   1.319   1_545  A
N816        N846   1.319       .  A
N816       Co849   2.060       .  S
N817        N853   1.317       .  A
N818       C1167   1.344       .  A
N818        N828   1.323       .  A
H819        C844   1.081       .  S
N820       N1133   1.321       .  A
N820        N841   1.318       .  A
N821        N826   1.322       .  A
C822        N826   1.344   1_455  A
C822        C874   1.434       .  S
N823        C838   1.344       .  A
N823       N1136   1.318       .  A
N823       Co845   2.094       .  S
C824        N852   1.342       .  A
C824        C827   1.456       .  S
C824        H858   1.082       .  S
C827        C875   1.434       .  S
N828       N1154   1.321       .  A
N829        C855   1.342       .  A
N829       N1151   1.319       .  A
N829       Co845   2.083       .  S
N830        C844   1.332       .  A
N831       N1149   1.322   1_545  A
N831        N859   1.325       .  A
N831       Co849   2.085       .  S
H832        C855   1.081       .  S
H833        C850   1.082       .  S
N834       N1148   1.319   1_545  A
N835       Co849   2.076       .  S
N836        N848   1.325       .  A
N836       Co845   2.085       .  S
C837       N1161   1.353   1_545  A
C837        C851   1.442       .  S
C837        C946   1.461       .  S
C838       C1177   1.464       .  S
C838        H842   1.081       .  S
N839        C850   1.338       .  A
N839       Co849   2.070       .  S
N841       C1157   1.339       .  A
C843        N859   1.347   1_565  A
C843       C1175   1.461       .  S
C843        C878   1.445       .  S
N846        C857   1.340       .  A
C847       N1138   1.345   1_545  A
C847        C879   1.425       .  S
C855       C1163   1.456       .  S
Cl856     Co1132   2.453       .  S
C857       C1158   1.473   1_545  S
C857        C949   1.471       .  S
C860        C876   1.448       .  S
C860        C888   1.443       .  S
C860        C861   1.355       .  D
C861        C873   1.444       .  S
C861        C885   1.450       .  S
C862        C880   1.445       .  S
C862        C884   1.445       .  S
C862        C863   1.353       .  D
C863        C877   1.442       .  S
C863        C882   1.443       .  S
C864        C890   1.530       .  S
C865        C866   1.340   1_655  D
C865        H867   1.086       .  S
C869        C870   1.310   1_655  D
C870        H872   1.198   1_455  S
C877       C1198   1.204       .  T
C878       C1197   1.212       .  T
C879       C1200   1.199       .  T
C880       C1199   1.205       .  T
C881       C1202   1.202       .  T
C882       C1201   1.203       .  T
C883       C1204   1.209       .  T
C884       C1203   1.205       .  T
C889        C890   1.336       .  D
C889        H891   1.084       .  S
C890        H892   1.088       .  S
C893        C894   1.340       .  D
C893        H895   1.086       .  S
C894        H896   1.087       .  S
C897        C898   1.206       .  T
C899        C900   1.209       .  T
C901        C902   1.202       .  T
C903        C904   1.208       .  T
C905        C906   1.340   1_655  D
C905        H907   1.086       .  S
C909        C910   1.341       .  D
C909        H911   1.086   1_655  S
C913        C914   1.333       .  D
C913        H915   1.090       .  S
C914        H916   1.087       .  S
C917        C918   1.341       .  D
C917        H919   1.090       .  S
C918        H920   1.085       .  S
C921        C964   1.524       .  S
C921        C922   1.340   1_545  D
C921        H923   1.089       .  S
C922       H1244   1.086       .  S
H924       C1242   1.085       .  S
C925        C926   1.342   1_565  D
C925       H1247   1.085       .  S
C926        C964   1.533       .  S
C926        H928   1.087       .  S
H927       C1245   1.085       .  S
C929        C964   1.530       .  S
C929        C930   1.340       .  D
C929        H931   1.088       .  S
C930        H932   1.087       .  S
C933        C934   1.340       .  D
C933        H935   1.088       .  S
C934        H936   1.084       .  S
C937        C938   1.213       .  T
C939        C940   1.211       .  T
C941        C942   1.201       .  T
C943        C944   1.205       .  T
C945        C961   1.519       .  S
C945        C946   1.337   1_565  D
C945        H947   1.089       .  S
C946       H1268   1.085       .  S
H948       C1266   1.085       .  S
C949        C950   1.339   1_545  D
C949       H1271   1.086       .  S
C950        C961   1.537       .  S
C950        H952   1.088       .  S
H951       C1269   1.084       .  S
C953        C961   1.542   1_545  S
C953        C954   1.347       .  D
C953        H955   1.087       .  S
C954        H956   1.085       .  S
C957        C958   1.342       .  D
C957        H959   1.089       .  S
C958        H960   1.083       .  S
C961       C1277   1.508       .  S
C962       C1259   1.448       .  S
C962       C1263   1.452   1_554  S
C963       C1257   1.446   1_556  S
C963       C1261   1.445       .  S
C964       C1253   1.546   1_545  S
C965       C1233   1.519       .  S
C966       C1220   1.442       .  S
C966       C1223   1.447   1_554  S
C967       C1217   1.446       .  S
C967       C1221   1.450   1_554  S
C968        N986   1.349       .  A
C968       C1005   1.453       .  S
C968       C1224   1.436       .  S
N969        N986   1.326       .  A
N969        N991   1.322       .  A
N969      Co1006   2.092       .  S
C970        N995   1.331       .  A
C970       C1008   1.439       .  S
C970       H1015   1.082       .  S
H971       C1012   1.082       .  S
C972        N996   1.342       .  A
C972        C976   1.456       .  S
C972       H1001   1.081       .  S
Co973       N991   2.084       .  S
Co973       N981   2.103       .  S
Co973      N1013   2.111       .  S
Co973       N989   2.102       .  S
Co973     Cl1017   2.460       .  S
N974       C1012   1.337       .  A
N974        N981   1.321       .  A
N974       Co975   2.063       .  S
Co975       N978   2.080       .  S
Co975       N995   2.055       .  S
Co975       N982   2.062       .  S
Co975     Cl1017   2.441       .  S
C976       N1014   1.348       .  A
C976       C1222   1.439       .  S
N977        N984   1.322       .  A
N977       N1007   1.327       .  A
N977      Co1010   2.094       .  S
N978        N996   1.319       .  A
N978       N1014   1.326       .  A
N979       C1008   1.357       .  A
N979        N989   1.329       .  A
H980       C1005   1.082       .  S
N981       N1002   1.327       .  A
N982       N1000   1.319       .  A
N982        N987   1.320       .  A
C983        N987   1.340       .  A
C983       C1011   1.468       .  S
C983       C1250   1.468       .  S
N984        C999   1.342       .  A
N984      Co1006   2.088       .  S
C985       N1013   1.348       .  A
C985        C988   1.470       .  S
C985       H1019   1.082       .  S
C988       N1009   1.348       .  A
C988       C1254   1.481       .  S
N989        N995   1.320       .  A
N990       C1016   1.344       .  A
N990        N992   1.321       .  A
N990      Co1006   2.094       .  S
N991       C1005   1.340       .  A
N992       N1020   1.323       .  A
N992      Co1010   2.084       .  S
H993       C1016   1.082       .  S
H994       C1011   1.081       .  S
N996      Co1010   2.086       .  S
N997       N1009   1.324       .  A
N997       N1013   1.322       .  A
N997      Co1006   2.088       .  S
C998       N1002   1.350       .  A
C998       C1012   1.449       .  S
C998       C1262   1.434       .  S
C999       C1018   1.455       .  S
C999       H1003   1.081       .  S
N1000      C1011   1.347       .  A
N1000     Co1010   2.098       .  S
C1004      N1020   1.347       .  A
C1004      C1016   1.464       .  S
C1004      C1238   1.475       .  S
Co1006    Cl1017   2.447       .  S
N1007      C1018   1.349       .  A
C1008      C1234   1.462       .  S
Co1010    Cl1017   2.462       .  S
C1018      C1264   1.442       .  S
C1021      N1039   1.344       .  A
C1021      C1058   1.467       .  S
C1021      C1209   1.474       .  S
N1022      N1039   1.323       .  A
N1022      N1044   1.319       .  A
N1022     Co1059   2.073       .  S
C1023      N1048   1.338       .  A
C1023      C1061   1.450       .  S
C1023      H1068   1.082       .  S
H1024      C1065   1.081       .  S
C1025      N1049   1.350       .  A
C1025      C1029   1.471       .  S
C1025      H1054   1.082       .  S
Co1026     N1044   2.097       .  S
Co1026     N1034   2.081       .  S
Co1026     N1066   2.082       .  S
Co1026     N1042   2.100       .  S
Co1026    Cl1070   2.462       .  S
N1027      C1065   1.337       .  A
N1027      N1034   1.320       .  A
N1027     Co1028   2.079       .  S
Co1028     N1031   2.066       .  S
Co1028     N1048   2.071       .  S
Co1028     N1035   2.098       .  S
Co1028    Cl1070   2.437       .  S
C1029      N1067   1.340       .  A
C1029      C1213   1.472       .  S
N1030      N1037   1.320       .  A
N1030      N1060   1.324       .  A
N1030     Co1063   2.081       .  S
N1031      N1049   1.320       .  A
N1031      N1067   1.320       .  A
N1032      C1061   1.350       .  A
N1032      N1042   1.327       .  A
H1033      C1058   1.081       .  S
N1034      N1055   1.326       .  A
N1035      N1053   1.321       .  A
N1035      N1040   1.328       .  A
C1036      N1040   1.352       .  A
C1036      C1064   1.449       .  S
C1036      C1260   1.437       .  S
N1037      C1052   1.330       .  A
N1037     Co1059   2.052       .  S
C1038      N1066   1.342       .  A
C1038      C1041   1.456       .  S
C1038      H1072   1.082       .  S
C1041      N1062   1.347       .  A
C1041      C1258   1.435       .  S
N1042      N1048   1.322       .  A
N1043      C1069   1.338       .  A
N1043      N1045   1.322       .  A
N1043     Co1059   2.071       .  S
N1044      C1058   1.346       .  A
N1045      N1073   1.325       .  A
N1045     Co1063   2.096       .  S
H1046      C1069   1.082       .  S
H1047      C1064   1.082       .  S
N1049     Co1063   2.106       .  S
N1050      N1062   1.324       .  A
N1050      N1066   1.320       .  A
N1050     Co1059   2.080       .  S
C1051      N1055   1.349       .  A
C1051      C1065   1.453       .  S
C1051      C1274   1.463       .  S
C1052      C1071   1.440       .  S
C1052      H1056   1.082       .  S
N1053      C1064   1.338       .  A
N1053     Co1063   2.073       .  S
C1057      N1073   1.348       .  A
C1057      C1069   1.451       .  S
C1057      C1219   1.432       .  S
Co1059    Cl1070   2.435       .  S
N1060      C1071   1.351       .  A
C1061      C1218   1.435       .  S
Co1063    Cl1070   2.461       .  S
C1071      C1278   1.449       .  S
C1074      C1111   1.467       .  S
C1074      C1245   1.470       .  S
N1075      N1092   1.319       .  A
N1075     Co1112   2.068       .  S
C1076      N1101   1.340       .  A
C1076      C1114   1.452   1_655  S
C1076      H1121   1.081       .  S
H1077      C1118   1.082       .  S
C1078      N1102   1.339       .  A
C1078      H1107   1.081       .  S
Co1079     N1097   2.103       .  S
Co1079     N1087   2.091       .  S
Co1079     N1119   2.082       .  S
Co1079     N1095   2.108       .  S
N1080      C1118   1.338       .  A
N1080     Co1081   2.080       .  S
Co1081     N1084   2.073       .  S
Co1081     N1101   2.077       .  S
Co1081     N1088   2.089       .  S
Co1081    Cl1123   2.438   1_655  S
C1082      N1120   1.344       .  A
C1082      C1242   1.470       .  S
N1083      N1113   1.319       .  A
N1083     Co1116   2.053       .  S
N1084      N1120   1.321       .  A
N1085      N1095   1.328       .  A
H1086      C1111   1.081       .  S
N1087      N1108   1.327       .  A
N1088      N1093   1.325       .  A
C1089      N1093   1.347       .  A
C1089      C1203   1.434       .  S
N1090      C1105   1.341       .  A
N1090     Co1112   2.081       .  S
C1091      N1119   1.340       .  A
C1091      C1094   1.452       .  S
C1091      H1125   1.081       .  S
C1094      C1201   1.431       .  S
N1096      C1122   1.339       .  A
N1096     Co1112   2.079       .  S
N1097      C1111   1.347       .  A
N1098      N1126   1.327       .  A
N1098     Co1116   2.094       .  S
H1099      C1122   1.082       .  S
H1100      C1117   1.082       .  S
N1102     Co1116   2.081       .  S
N1103      N1115   1.324       .  A
N1103     Co1112   2.077       .  S
C1104      C1118   1.457   1_455  S
C1104      C1226   1.463       .  S
C1105      H1109   1.081       .  S
N1106      C1117   1.338       .  A
N1106     Co1116   2.067       .  S
C1110      N1126   1.350       .  A
C1110      C1207   1.435       .  S
N1113      C1124   1.338       .  A
C1114      C1206   1.440       .  S
C1124      C1229   1.463       .  S
C1127      C1164   1.453       .  S
C1127      C1185   1.473       .  S
N1128      N1145   1.328       .  A
N1128     Co1165   2.098       .  S
C1129      N1154   1.344       .  A
C1129      C1167   1.458       .  S
C1129      H1174   1.081       .  S
H1130      C1171   1.082       .  S
C1131      N1155   1.334       .  A
C1131      H1160   1.081       .  S
Co1132     N1150   2.073       .  S
Co1132     N1140   2.090       .  S
Co1132     N1172   2.082       .  S
Co1132     N1148   2.075       .  S
N1133      C1171   1.349       .  A
N1133     Co1134   2.101       .  S
Co1134     N1137   2.103       .  S
Co1134     N1154   2.096       .  S
Co1134     N1141   2.087       .  S
Co1134    Cl1176   2.471   1_655  S
C1135      N1173   1.355   1_455  A
C1135      C1189   1.474       .  S
N1136      N1166   1.324       .  A
N1136     Co1169   2.079       .  S
N1137      N1173   1.330       .  A
N1138      N1148   1.323       .  A
H1139      C1164   1.082       .  S
N1140      N1161   1.326       .  A
N1141      N1146   1.326       .  A
C1142      N1146   1.348   1_455  A
C1142      C1194   1.438       .  S
N1143      C1158   1.350       .  A
N1143     Co1165   2.105       .  S
C1144      N1172   1.340       .  A
C1144      C1147   1.453       .  S
C1144      H1178   1.081       .  S
C1147      C1195   1.434       .  S
N1149      C1175   1.346       .  A
N1149     Co1165   2.103       .  S
N1150      C1164   1.338       .  A
N1151      N1179   1.323       .  A
N1151     Co1169   2.070       .  S
H1152      C1175   1.081       .  S
H1153      C1170   1.081       .  S
N1155     Co1169   2.060       .  S
N1156      N1168   1.327       .  A
N1156     Co1165   2.095       .  S
C1157      C1171   1.469       .  S
C1157      C1266   1.467       .  S
C1158      H1162   1.082       .  S
N1159      C1170   1.339       .  A
N1159     Co1169   2.074       .  S
C1163      N1179   1.345       .  A
C1163      C1198   1.432       .  S
N1166      C1177   1.349       .  A
C1167      C1199   1.434       .  S
C1177      C1269   1.471       .  S
C1180      C1196   1.454       .  S
C1180      C1208   1.443       .  S
C1180      C1181   1.356       .  D
C1181      C1193   1.441       .  S
C1181      C1205   1.452       .  S
C1182      C1200   1.435       .  S
C1182      C1204   1.452       .  S
C1182      C1183   1.355       .  D
C1183      C1197   1.456   1_545  S
C1183      C1202   1.439       .  S
C1184      C1210   1.532       .  S
C1185      C1186   1.346   1_655  D
C1185      H1187   1.086       .  S
C1189      C1190   1.350   1_455  D
C1190      H1192   1.087       .  S
C1209      C1210   1.341       .  D
C1209      H1211   1.083       .  S
C1210      H1212   1.088       .  S
C1213      C1214   1.341       .  D
C1213      H1215   1.084       .  S
C1214      H1216   1.088       .  S
C1217      C1218   1.206       .  T
C1219      C1220   1.203       .  T
C1221      C1222   1.208       .  T
C1223      C1224   1.206       .  T
C1225      C1226   1.344       .  D
C1225      H1227   1.087       .  S
C1229      C1230   1.335   1_655  D
C1229      H1231   1.085       .  S
C1233      C1234   1.334       .  D
C1233      H1235   1.090       .  S
C1234      H1236   1.086       .  S
C1237      C1238   1.347       .  D
C1237      H1239   1.088       .  S
C1238      H1240   1.083       .  S
C1241      C1242   1.346       .  D
C1241      H1243   1.088       .  S
C1245      C1246   1.344       .  D
C1246      H1248   1.087       .  S
C1249      C1250   1.339       .  D
C1249      H1251   1.088       .  S
C1250      H1252   1.085       .  S
C1253      C1254   1.347       .  D
C1253      H1255   1.086       .  S
C1254      H1256   1.084       .  S
C1257      C1258   1.206       .  T
C1259      C1260   1.207       .  T
C1261      C1262   1.205       .  T
C1263      C1264   1.209       .  T
C1265      C1266   1.340       .  D
C1265      H1267   1.088       .  S
C1269      C1270   1.349       .  D
C1270      H1272   1.088       .  S
C1273      C1274   1.340       .  D
C1273      H1275   1.091       .  S
C1274      H1276   1.086       .  S
C1277      C1278   1.333       .  D
C1277      H1279   1.089       .  S
C1278      H1280   1.087       .  S
