geometry optimzed in LAMMPS
_audit_creation_date              2020-11-30 
_audit_creation_method            'lammps2cif' 
_symmetry_space_group_name_H-M    'P1' 
_symmetry_Int_Tables_number       1 
_symmetry_cell_setting            triclinic 
loop_ 
_symmetry_equiv_pos_as_xyz 
  x,y,z 
_cell_length_a                    40.51156924793822 
_cell_length_b                    40.35553402918618 
_cell_length_c                    40.53763570992123 
_cell_angle_alpha                 86.25099120468998 
_cell_angle_beta                  84.76938093944743 
_cell_angle_gamma                 95.35661869428563 
loop_ 
_atom_site_label 
_atom_site_type_symbol 
_atom_site_fract_x 
_atom_site_fract_y 
_atom_site_fract_z 
_atom_site_charge 
C1          C  0.10923222  0.28658078  0.51385870     0.03210
C2          C  0.14080021  0.28190944  0.02434158    -0.12940
C3          C  0.15058868  0.24957055  0.02955769     0.00710
C4          C  0.12666746  0.22222328  0.02796392    -0.11470
C5          C  0.09447970  0.22654950  0.51843568     0.03200
C6          C  0.08733369  0.25880269  0.50892859    -0.10890
H7          H  0.15677941  0.30329765  0.03020242     0.08800
H8          H  0.13312463  0.19739497  0.03472839     0.06330
H9          H  0.06364617  0.26278473  0.50012170     0.06170
C10         C  0.32411696  0.19186968  0.09046584     0.03210
C11         C  0.29399771  0.19436847  0.07583483    -0.12940
C12         C  0.28003034  0.22506071  0.07365721     0.00710
C13         C  0.29840625  0.25369424  0.08282769    -0.11470
C14         C  0.32742208  0.25139064  0.09921750     0.03200
C15         C  0.33819978  0.21969076  0.10522520    -0.10890
H16         H  0.28194551  0.17294560  0.06538969     0.08800
H17         H  0.29005121  0.27770228  0.07664540     0.06330
H18         H  0.35978318  0.21719950  0.11875541     0.06170
C19         C  0.16721360  0.45088595  0.20378505     0.03210
C20         C  0.17077889  0.46056821  0.23609135    -0.12940
C21         C  0.19915634  0.45400209  0.25177120     0.00710
C22         C  0.22503976  0.43994601  0.23426217    -0.11470
C23         C  0.22472308  0.43619067  0.19998490     0.03200
C24         C  0.19477786  0.43912580  0.18602993    -0.10890
H25         H  0.15249973  0.47426022  0.24870326     0.08800
H26         H  0.24747344  0.43650440  0.24623971     0.06330
H27         H  0.19362265  0.43478136  0.16037052     0.06170
C28         C  0.26253691  0.01543853  0.42064397     0.03210
C29         C  0.25837167  0.00934559  0.38747868    -0.12940
C30         C  0.22631508  0.00657953  0.37667008     0.00710
C31         C  0.19879905  0.01102324  0.39893644    -0.11470
C32         C  0.20284106  0.01717600  0.43206094     0.03200
C33         C  0.23471307  0.01897225  0.44278359    -0.10890
H34         H  0.27967172  0.00493627  0.37076431     0.08800
H35         H  0.17392909  0.00761742  0.39100852     0.06330
H36         H  0.23776009  0.02074681  0.46890885     0.06170
C37         C  0.00525037  0.12732140  0.27111263     0.03210
C38         C  0.01148828  0.10893601  0.30024532    -0.12940
C39         C  0.00486656  0.12097758  0.33143838     0.00710
C40         C  0.99687688  0.15382102  0.33355545    -0.11470
C41         C  0.99131844  0.17315400  0.30497225     0.03200
C42         C  0.99432829  0.15935438  0.27388191    -0.10890
H43         H  0.01810817  0.08359624  0.29897333     0.08800
H44         H  0.99234315  0.16342420  0.35773749     0.06330
H45         H  0.98630375  0.17277326  0.25259509     0.06170
C46         C  0.42146156  0.34393844  0.35842896     0.03210
C47         C  0.43167179  0.31163209  0.35600487    -0.12940
C48         C  0.43271832  0.29686226  0.32545432     0.00710
C49         C  0.42489540  0.31515947  0.29713832    -0.11470
C50         C  0.41744361  0.34844395  0.29848002     0.03200
C51         C  0.41460509  0.36203117  0.32937137    -0.10890
H52         H  0.44056826  0.29871058  0.37714090     0.08800
H53         H  0.42774528  0.30448467  0.27330265     0.06330
H54         H  0.40974848  0.38790999  0.33042453     0.06170
O55         O  0.02639863  0.41764009  0.01395094    -0.86410
O56         O  0.43102271  0.46340729  0.17046433    -0.86570
O57         O  0.03280713  0.44084684  0.12448871    -0.88240
O58         O  0.43984588  0.38243482  0.10216897    -0.87000
O59         O  0.39584443  0.39458572  0.07321531    -0.86590
O60         O  0.05578399  0.49503290  0.11280875    -0.87960
O61         O  0.45888545  0.42033073  0.15297302    -0.86440
O62         O  0.01476780  0.39577783  0.06738526    -0.86020
Zr63       Zr  0.48094393  0.43219984  0.09683293     2.84310
O64         O  0.42814827  0.45061421  0.10067783    -1.08000
O65         O  0.01731830  0.46858282  0.06039794    -1.08730
C66         C  0.02963878  0.39580798  0.03810371     1.06700
C67         C  0.44279647  0.43464156  0.17551958     1.06640
C68         C  0.05550877  0.46539287  0.12642111     1.09630
C69         C  0.41077569  0.37514701  0.09199209     1.07410
H70         H  0.49197514  0.48501653  0.13801109     0.32960
O71         O  0.48407669  0.48568364  0.11624058    -1.28950
H72         H  0.45939343  0.40932892  0.03749979     0.32640
O73         O  0.46051590  0.43167049  0.04483270    -1.30630
O74         O  0.39933719  0.05314996  0.11437993    -0.86400
O75         O  0.49895958  0.50635561  0.45801937    -0.87900
O76         O  0.01559025  0.05074505  0.13128025    -0.86480
O77         O  0.35764512  0.44928108  0.09014626    -0.86530
O78         O  0.41174970  0.42221857  0.99679495    -0.86240
O79         O  0.07070590  0.01925655  0.04036814    -0.86050
O80         O  0.48445373  0.09271037  0.02841052    -0.86420
O81         O  0.39837722  0.03311482  0.99863478    -0.85880
O82         O  0.02826431  0.08065660  0.05771894    -0.86940
O83         O  0.37328857  0.48042961  0.01318826    -0.86100
O84         O  0.46154631  0.03962408  0.15439809    -0.86500
O85         O  0.05554648  0.48733157  0.99850102    -0.86220
O86         O  0.46580391  0.43357265  0.47383904    -0.85870
O87         O  0.37444495  0.48091541  0.13104581    -0.86280
O88         O  0.40986063  0.07436130  0.05997552    -0.86580
O89         O  0.46837202  0.04917401  0.47241414    -0.87910
Zr90       Zr  0.43090949  0.50367934  0.12015339     2.83100
Zr91       Zr  0.49715035  0.46844618  0.00837214     2.83500
Zr92       Zr  0.01981935  0.02263203  0.07885583     2.84090
Zr93       Zr  0.40731636  0.45095815  0.04887656     2.83360
Zr94       Zr  0.44693164  0.04073210  0.03024141     2.84220
O95         O  0.44403151  0.48696992  0.01184810    -1.08490
O96         O  0.46649020  0.04085736  0.08287877    -1.07990
C97         C  0.39576421  0.07436001  0.08976912     1.06670
C98         C  0.48643736  0.03413159  0.45146723     1.09290
C99         C  0.49175624  0.05264467  0.15454216     1.06850
C100        C  0.35260500  0.46202718  0.11862982     1.07210
C101        C  0.43566520  0.42047320  0.47354885     1.06790
C102        C  0.07731960  0.50424285  0.01345645     1.06340
C103        C  0.01291356  0.10042734  0.03961557     1.06770
C104        C  0.37541760  0.00907390  0.99658681     1.06280
H105        H  0.01511227  0.03726821  0.01108188     0.32960
O106        O  0.50012824  0.02252464  0.02652506    -1.29580
H107        H  0.38832459  0.01181976  0.06880682     0.32980
O108        O  0.41044412  0.50463351  0.06762550    -1.30970
C109        C  0.40983179  0.41824517  0.23104828    -0.05700
C110        C  0.43781535  0.41487098  0.20877529     0.00230
C111        C  0.45909033  0.38976684  0.21738212    -0.08340
C112        C  0.45078071  0.36927102  0.24665981    -0.05720
C113        C  0.42155898  0.37097340  0.26736066     0.00210
C114        C  0.40033899  0.39579251  0.25929863    -0.08250
C115        C  0.36698706  0.39896077  0.27853762     0.62130
H116        H  0.39406491  0.43740351  0.22562468     0.12820
H117        H  0.46742212  0.35110852  0.25363538     0.12830
C118        C  0.49073116  0.38351749  0.19637695     0.62360
F119        F  0.34310194  0.40267003  0.25659329    -0.22810
F120        F  0.36960840  0.42686932  0.29654305    -0.20140
F121        F  0.35593960  0.37126119  0.29990868    -0.19810
F122        F  0.00870459  0.41339026  0.18570067    -0.19870
F123        F  0.48271248  0.36623022  0.16936870    -0.20190
F124        F  0.51134823  0.36497785  0.21394033    -0.22860
C125        C  0.40903803  0.37157698  0.44734856    -0.05700
C126        C  0.42911460  0.40219976  0.44375973     0.00230
C127        C  0.44486523  0.41396184  0.41181858    -0.08340
C128        C  0.44312828  0.39301070  0.38575341    -0.05720
C129        C  0.42380838  0.36206033  0.38921145     0.00210
C130        C  0.40548254  0.35148335  0.42029176    -0.08250
C131        C  0.38176837  0.31974969  0.42486250     0.62130
H132        H  0.39672907  0.36313273  0.47168720     0.12820
H133        H  0.45682858  0.40106084  0.36192164     0.12830
C134        C  0.46285006  0.44887945  0.40442468     0.62360
F135        F  0.36228939  0.31749341  0.45497090    -0.22810
F136        F  0.39950192  0.29216211  0.42410237    -0.20140
F137        F  0.36068944  0.31917835  0.39986710    -0.19810
F138        F  0.49450352  0.44977248  0.41472330    -0.19870
F139        F  0.44516469  0.47193030  0.42037989    -0.20190
F140        F  0.46595608  0.45843809  0.37075110    -0.22860
C141        C  0.98615686  0.07756792  0.24310661    -0.05700
C142        C  0.00380215  0.10946908  0.23994644     0.00230
C143        C  0.02078462  0.12147665  0.20855138    -0.08340
C144        C  0.01727191  0.10191759  0.18106854    -0.05720
C145        C  0.49870150  0.07046300  0.18447244     0.00210
C146        C  0.48472070  0.05722304  0.21653622    -0.08250
C147        C  0.46888477  0.02140164  0.22339569     0.62130
H148        H  0.97329549  0.06832339  0.26700924     0.12820
H149        H  0.52831794  0.11147136  0.15655306     0.12830
C150        C  0.04287414  0.15426923  0.20382094     0.62360
F151        F  0.96751038  0.51096982  0.25677587    -0.22810
F152        F  0.98744869  0.49999020  0.20595880    -0.20140
F153        F  0.43672033  0.51886139  0.21433389    -0.19810
F154        F  0.06332630  0.15680587  0.22925289    -0.19870
F155        F  0.02351958  0.18067081  0.20338393    -0.20190
F156        F  0.06307060  0.15674586  0.17412899    -0.22860
C157        C  0.02743593  0.08195200  0.37185549    -0.05700
C158        C  0.99999501  0.09708236  0.36121941     0.00230
C159        C  0.46765699  0.08684540  0.37709346    -0.08340
C160        C  0.46446235  0.06433483  0.40525950    -0.05720
C161        C  0.49209578  0.05103968  0.41757399     0.00210
C162        C  0.02399151  0.05854376  0.39972403    -0.08250
C163        C  0.05411801  0.04225383  0.40999683     0.62130
H164        H  0.05160518  0.08880845  0.35818405     0.12820
H165        H  0.44013276  0.05758270  0.41867506     0.12830
C166        C  0.43642056  0.09918342  0.36433318     0.62360
F167        F  0.08285114  0.05416168  0.38997826    -0.22810
F168        F  0.04894887  0.50817574  0.40767604    -0.20140
F169        F  0.05921899  0.04841675  0.44227492    -0.19810
F170        F  0.43636268  0.09499866  0.33073974    -0.19870
F171        F  0.43514072  0.13252917  0.36961823    -0.20190
F172        F  0.40768806  0.08179737  0.38032135    -0.22860
C173        C  0.44237284  0.20558186  0.31115803    -0.05700
C174        C  0.47713720  0.20547466  0.30894557     0.00230
C175        C  0.99727855  0.23522167  0.31308674    -0.08340
C176        C  0.48178790  0.26440057  0.31924319    -0.05720
C177        C  0.44698772  0.26453387  0.32140412     0.00210
C178        C  0.42687693  0.23473936  0.31729939    -0.08250
C179        C  0.38920868  0.23377438  0.31997390     0.62130
H180        H  0.42743827  0.18241836  0.30836323     0.12820
H181        H  0.99675113  0.28753788  0.32206482     0.12830
C182        C  0.03494202  0.23600268  0.31061271     0.62360
F183        F  0.37417849  0.20191742  0.31743143    -0.22810
F184        F  0.37962922  0.25450005  0.29483110    -0.20140
F185        F  0.37783097  0.24436743  0.35034545    -0.19810
F186        F  0.04647818  0.22593026  0.28005815    -0.19870
F187        F  0.04423557  0.21470282  0.33545898    -0.20190
F188        F  0.05007907  0.26767638  0.31382967    -0.22860
C189        C  0.15448466  0.48338352  0.46127199    -0.05700
C190        C  0.17321273  0.01442083  0.45654694     0.00230
C191        C  0.16305906  0.04126442  0.47442506    -0.08340
C192        C  0.13272986  0.03636872  0.49506723    -0.05720
C193        C  0.11223296  0.00604856  0.49746943     0.00210
C194        C  0.12443186  0.47846557  0.48165555    -0.08250
C195        C  0.10626683  0.44364462  0.48582000     0.62130
H196        H  0.16330237  0.46295886  0.44797036     0.12820
H197        H  0.12428623  0.05661396  0.00828780     0.12830
C198        C  0.18322200  0.07520857  0.47022910     0.62360
F199        F  0.12730161  0.41963564  0.47766454    -0.22810
F200        F  0.08075741  0.44160268  0.46537209    -0.20140
F201        F  0.09367819  0.43631884  0.01849796    -0.19810
F202        F  0.18625001  0.08706595  0.43718017    -0.19870
F203        F  0.21456472  0.07279975  0.48041171    -0.20190
F204        F  0.16848205  0.09828133  0.98888837    -0.22860
C205        C  0.31123504  0.04402041  0.44315071    -0.05700
C206        C  0.29501261  0.01417790  0.43420395     0.00230
C207        C  0.30683789  0.98340889  0.44329692    -0.08340
C208        C  0.33429173  0.48354887  0.46196084    -0.05720
C209        C  0.34957859  0.01314188  0.47297752     0.00210
C210        C  0.33859423  0.04425434  0.46234858    -0.08250
C211        C  0.35455088  0.07747627  0.47174319     0.62130
H212        H  0.30132409  0.06714271  0.43593371     0.12820
H213        H  0.34345953  0.45998760  0.46891271     0.12830
C214        C  0.28954323  0.45040171  0.43473953     0.62360
F215        F  0.33840207  0.10404103  0.46019539    -0.22810
F216        F  0.38731041  0.08252714  0.45801833    -0.20140
F217        F  0.35336057  0.07778274  0.00591332    -0.19810
F218        F  0.29109182  0.44917009  0.40065666    -0.19870
F219        F  0.25653225  0.44716756  0.44775914    -0.20190
F220        F  0.30422035  0.42331378  0.44744701    -0.22860
C221        C  0.14259632  0.46713431  0.15210157    -0.05700
C222        C  0.13705082  0.45629220  0.18610647     0.00230
C223        C  0.10354690  0.44832232  0.20045507    -0.08340
C224        C  0.07760943  0.45282921  0.18028886    -0.05720
C225        C  0.08371732  0.46014539  0.14594617     0.00210
C226        C  0.11686580  0.46658363  0.13140018    -0.08250
C227        C  0.12529485  0.47197156  0.09407139     0.62130
H228        H  0.16762381  0.47547828  0.14126115     0.12820
H229        H  0.05240128  0.45155574  0.19162573     0.12830
C230        C  0.09408988  0.43481493  0.23629605     0.62360
F231        F  0.15888379  0.47043763  0.08499137    -0.22810
F232        F  0.11711629  0.50285833  0.08277176    -0.20140
F233        F  0.10778975  0.44732738  0.07876297    -0.19810
F234        F  0.09572464  0.46061489  0.25705825    -0.19870
F235        F  0.11481899  0.41122272  0.24548001    -0.20190
F236        F  0.06181564  0.41940568  0.24065219    -0.22860
C237        C  0.29452745  0.43327228  0.12870505    -0.05700
C238        C  0.31990602  0.45492940  0.13963423     0.00330
C239        C  0.31361322  0.46873258  0.17112295    -0.08340
C240        C  0.28189376  0.46248298  0.18795812    -0.05720
C241        C  0.25716458  0.43952718  0.17834232     0.00210
C242        C  0.26373035  0.42420014  0.14803727    -0.08250
C243        C  0.23923799  0.39876025  0.13488670     0.62130
H244        H  0.29909607  0.42263664  0.10506021     0.12820
H245        H  0.27610971  0.47625412  0.20936922     0.12830
C246        C  0.33963160  0.48871527  0.18908046     0.62360
F247        F  0.25600770  0.37645740  0.11716476    -0.22810
F248        F  0.22005817  0.41471331  0.11350233    -0.20140
F249        F  0.21901958  0.38051080  0.16036129    -0.19810
F250        F  0.35069406  0.01887715  0.17188568    -0.19870
F251        F  0.36610981  0.47038085  0.19271772    -0.20190
F252        F  0.32762083  0.49562436  0.22074704    -0.22860
C253        C  0.21928406  0.00016862  0.28425602    -0.05700
C254        C  0.20484867  0.46716391  0.28418386     0.00230
C255        C  0.19802759  0.44705630  0.31430550    -0.08340
C256        C  0.20588591  0.46082728  0.34393972    -0.05720
C257        C  0.22043728  0.99380951  0.34407422     0.00210
C258        C  0.22719236  0.01397562  0.31390757    -0.08250
C259        C  0.24211047  0.04994678  0.31324124     0.62130
H260        H  0.22454174  0.01493156  0.26074554     0.12820
H261        H  0.20068176  0.44595868  0.36739652     0.12830
C262        C  0.18235478  0.41137267  0.31491480     0.62360
F263        F  0.24492027  0.06571659  0.28159401    -0.22810
F264        F  0.27356971  0.05107069  0.32400690    -0.20140
F265        F  0.22210834  0.06742642  0.33385937    -0.19810
F266        F  0.20285221  0.39293343  0.29588104    -0.19870
F267        F  0.15184116  0.41103266  0.30214315    -0.20190
F268        F  0.17732310  0.39615338  0.34682249    -0.22860
C269        C  0.32424327  0.12950340  0.09648175    -0.05700
C270        C  0.34219910  0.16116265  0.08944661     0.00230
C271        C  0.37748487  0.16284324  0.08258773    -0.08340
C272        C  0.39351323  0.13418760  0.08877495    -0.05720
C273        C  0.37580177  0.10269583  0.09505061     0.00210
C274        C  0.34050070  0.09997048  0.09704705    -0.08250
C275        C  0.32025650  0.06634824  0.09793351     0.62130
H276        H  0.29735898  0.12794303  0.10072909     0.12820
H277        H  0.42052377  0.13588695  0.08494376     0.12830
C278        C  0.39947201  0.19294169  0.06589988     0.62360
F279        F  0.28657778  0.06947801  0.09724307    -0.22810
F280        F  0.32442188  0.04762851  0.12652904    -0.20140
F281        F  0.33065779  0.04955763  0.07080940    -0.19810
F282        F  0.41791506  0.20750649  0.08914256    -0.19870
F283        F  0.38154573  0.21614853  0.05086883    -0.20190
F284        F  0.42133478  0.18285686  0.04111227    -0.22860
C285        C  0.38391018  0.28256899  0.09728754    -0.05700
C286        C  0.34927086  0.28200486  0.10560666     0.00230
C287        C  0.33673346  0.31147342  0.11658325    -0.08340
C288        C  0.35797891  0.34140087  0.11279002    -0.05720
C289        C  0.39207339  0.34214865  0.10195749     0.00210
C290        C  0.40573984  0.31185895  0.09647598    -0.08250
C291        C  0.44293629  0.31054948  0.08885651     0.62130
H292        H  0.39389459  0.26022674  0.08974929     0.12820
H293        H  0.34778972  0.36461154  0.11813344     0.12830
C294        C  0.30136202  0.31246036  0.13200330     0.62360
F295        F  0.45089843  0.27853914  0.08373458    -0.22810
F296        F  0.45893485  0.32121042  0.11551867    -0.20140
F297        F  0.45460700  0.33088818  0.06062469    -0.19810
F298        F  0.28763638  0.28144871  0.14590551    -0.19870
F299        F  0.28206497  0.32345177  0.10800114    -0.20190
F300        F  0.30079905  0.33420396  0.15704837    -0.22860
C301        C  0.01703263  0.16263276  0.03878249    -0.05700
C302        C  0.03101506  0.13375356  0.02961242     0.00230
C303        C  0.06343989  0.13672893  0.01282011    -0.08340
C304        C  0.08116679  0.16822548  0.00639638    -0.05720
C305        C  0.06916751  0.19683805  0.01874159     0.00210
C306        C  0.03575138  0.19434581  0.03449634    -0.08250
C307        C  0.01948775  0.22398729  0.04766409     0.62130
H308        H  0.49188166  0.15983327  0.05093374     0.12820
H309        H  0.10610653  0.17030595  0.99379055     0.12830
C310        C  0.08138985  0.10659216  0.00540110     0.62360
F311        F  0.49082995  0.21389149  0.06852595    -0.22810
F312        F  0.01041754  0.24373287  0.52150031    -0.20140
F313        F  0.04086705  0.24257887  0.06566640    -0.19810
F314        F  0.06053121  0.08264656  0.99287384    -0.19870
F315        F  0.09213977  0.09395110  0.03465529    -0.20190
F316        F  0.10860453  0.11462974  0.98217438    -0.22860
C317        C  0.08564145  0.32520630  0.05083323    -0.05700
C318        C  0.09452026  0.31837507  0.01813271     0.00230
C319        C  0.08413399  0.33812965  0.49172352    -0.08340
C320        C  0.06299158  0.36305009  0.49922676    -0.05720
C321        C  0.05248583  0.36909096  0.03227246     0.00210
C322        C  0.06506231  0.35017870  0.05874949    -0.08250
C323        C  0.05726564  0.35529939  0.09547535     0.62130
H324        H  0.09384876  0.30931870  0.07043002     0.12820
H325        H  0.05411605  0.37763382  0.47911698     0.12830
C326        C  0.09604107  0.33324400  0.45597780     0.62360
F327        F  0.07503743  0.33610747  0.11569375    -0.22810
F328        F  0.52386639  0.34628713  0.10508459    -0.20140
F329        F  0.06560635  0.38824552  0.10118489    -0.19810
F330        F  0.08376634  0.30215705  0.44753971    -0.19870
F331        F  0.13048866  0.33569982  0.45225894    -0.20190
F332        F  0.08576552  0.35709676  0.43409685    -0.22860
C333        C  0.24520214  0.24746262  0.03129970    -0.05700
C334        C  0.24671741  0.22829483  0.06122770     0.00230
C335        C  0.21657396  0.21607493  0.08059000    -0.08340
C336        C  0.18600900  0.22417144  0.06963485    -0.05720
C337        C  0.18438503  0.24372427  0.03989520     0.00210
C338        C  0.21457312  0.25501349  0.01994573    -0.08250
C339        C  0.21471536  0.27425796  0.98643031     0.62130
H340        H  0.26846424  0.25688007  0.01700341     0.12820
H341        H  0.16286794  0.21528209  0.08439727     0.12830
C342        C  0.21666188  0.19505307  0.11305854     0.62360
F343        F  0.24591071  0.27733993  0.96880763    -0.22810
F344        F  0.20582675  0.30601506  0.99076608    -0.20140
F345        F  0.19256245  0.25787044  0.46749126    -0.19810
F346        F  0.23597892  0.21199616  0.13419281    -0.19870
F347        F  0.22943526  0.16523295  0.10691281    -0.20190
F348        F  0.18490526  0.18766106  0.12909316    -0.22860
C349        C  0.10923211  0.28658050  0.01385861     0.03210
C350        C  0.14080033  0.28190971  0.52434164    -0.12940
C351        C  0.15058876  0.24957082  0.52955781     0.00710
C352        C  0.12666750  0.22222358  0.52796412    -0.11470
C353        C  0.09447966  0.22654918  0.01843549     0.03200
C354        C  0.08733363  0.25880239  0.00892842    -0.10890
H355        H  0.15677956  0.30329793  0.53020244     0.08800
H356        H  0.13312465  0.19739527  0.53472864     0.06330
H357        H  0.06364612  0.26278442  0.00012150     0.06170
C358        C  0.32411658  0.19186950  0.59046644     0.03210
C359        C  0.29399742  0.19436833  0.57583530    -0.12940
C360        C  0.28003028  0.22506064  0.57365737     0.00710
C361        C  0.29840635  0.25369417  0.58282764    -0.11470
C362        C  0.32742211  0.25139054  0.59921755     0.03200
C363        C  0.33819959  0.21969063  0.60522558    -0.10890
H364        H  0.28194513  0.17294545  0.56539029     0.08800
H365        H  0.29005147  0.27770224  0.57664515     0.06330
H366        H  0.35978291  0.21719937  0.61875591     0.06170
C367        C  0.16721358  0.45088595  0.70378500     0.03210
C368        C  0.17077889  0.46056820  0.73609130    -0.12940
C369        C  0.19915633  0.45400201  0.75177115     0.00710
C370        C  0.22503971  0.43994588  0.73426211    -0.11470
C371        C  0.22472301  0.43619057  0.69998484     0.03200
C372        C  0.19477780  0.43912576  0.68602987    -0.10890
H373        H  0.15249977  0.47426025  0.74870322     0.08800
H374        H  0.24747339  0.43650424  0.74623963     0.06330
H375        H  0.19362258  0.43478134  0.66037045     0.06170
C376        C  0.26253738  0.01543899  0.92064440     0.03210
C377        C  0.25837202  0.00934589  0.88747912    -0.12940
C378        C  0.22631535  0.00657962  0.87667061     0.00710
C379        C  0.19879935  0.01102325  0.89893702    -0.11470
C380        C  0.20284141  0.01717609  0.93206148     0.03200
C381        C  0.23471350  0.01897263  0.94278404    -0.10890
H382        H  0.27967203  0.00493664  0.87076468     0.08800
H383        H  0.17392937  0.00761729  0.89100917     0.06330
H384        H  0.23776056  0.02074735  0.96890927     0.06170
C385        C  0.00525022  0.12732121  0.77111272     0.03210
C386        C  0.01148805  0.10893580  0.80024543    -0.12940
C387        C  0.00486629  0.12097736  0.83143851     0.00710
C388        C  0.99687664  0.15382082  0.83355554    -0.11470
C389        C  0.99131827  0.17315382  0.80497233     0.03200
C390        C  0.99432818  0.15935421  0.77388199    -0.10890
H391        H  0.01810794  0.08359603  0.79897345     0.08800
H392        H  0.99234289  0.16342401  0.85773758     0.06330
H393        H  0.98630371  0.17277311  0.75259515     0.06170
C394        C  0.42146117  0.34393878  0.85842897     0.03210
C395        C  0.43167140  0.31163246  0.85600480    -0.12940
C396        C  0.43271783  0.29686268  0.82545422     0.00710
C397        C  0.42489481  0.31515990  0.79713829    -0.11470
C398        C  0.41744311  0.34844438  0.79848006     0.03200
C399        C  0.41460464  0.36203156  0.82937143    -0.10890
H400        H  0.44056798  0.29871093  0.87714076     0.08800
H401        H  0.42774466  0.30448514  0.77330260     0.06330
H402        H  0.40974807  0.38791039  0.83042463     0.06170
O403        O  0.02639847  0.41764002  0.51395108    -0.86410
O404        O  0.43102258  0.46340752  0.67046437    -0.86570
O405        O  0.03280707  0.44084690  0.62448882    -0.88240
O406        O  0.43984583  0.38243482  0.60216898    -0.87000
O407        O  0.39584442  0.39458561  0.57321522    -0.86590
O408        O  0.05578389  0.49503297  0.61280896    -0.87960
O409        O  0.45888527  0.42033090  0.65297313    -0.86440
O410        O  0.01476774  0.39577786  0.56738542    -0.86020
Zr411      Zr  0.48094366  0.43220001  0.59683306     2.84310
O412        O  0.42814801  0.45061431  0.60067782    -1.08000
O413        O  0.01731827  0.46858278  0.56039810    -1.08730
C414        C  0.02963869  0.39580799  0.53810387     1.06700
C415        C  0.44279634  0.43464180  0.67551966     1.06640
C416        C  0.05550870  0.46539293  0.62642123     1.09630
C417        C  0.41077569  0.37514694  0.59199201     1.07410
H418        H  0.49197491  0.48501661  0.63801133     0.32960
O419        O  0.48407649  0.48568373  0.61624083    -1.28950
H420        H  0.45939323  0.40932888  0.53749989     0.32640
O421        O  0.46051567  0.43167044  0.54483277    -1.30630
O422        O  0.39933529  0.05314914  0.61438283    -0.86400
O423        O  0.49895969  0.50635546  0.95801929    -0.87900
O424        O  0.01559016  0.05074530  0.63127991    -0.86480
O425        O  0.35764497  0.44928105  0.59014621    -0.86530
O426        O  0.41174959  0.42221846  0.49679488    -0.86240
O427        O  0.07070603  0.01925679  0.54036799    -0.86050
O428        O  0.48445412  0.09270526  0.52841012    -0.86420
O429        O  0.39837328  0.03311299  0.49863690    -0.85880
O430        O  0.02826438  0.08065697  0.55771876    -0.86940
O431        O  0.37328837  0.48042957  0.51318821    -0.86100
O432        O  0.46154422  0.03962357  0.65439971    -0.86500
O433        O  0.05554620  0.48733160  0.49850114    -0.86220
O434        O  0.46580401  0.43357274  0.97383906    -0.85870
O435        O  0.37444477  0.48091546  0.63104572    -0.86280
O436        O  0.40985577  0.07435957  0.55997824    -0.86580
O437        O  0.46837266  0.04917576  0.97240922    -0.87910
Zr438      Zr  0.43090929  0.50367943  0.62015339     2.83100
Zr439      Zr  0.49715001  0.46844615  0.50837219     2.83500
Zr440      Zr  0.01981935  0.02263243  0.57885530     2.84090
Zr441      Zr  0.40731617  0.45095810  0.54887650     2.83360
Zr442      Zr  0.44692489  0.04072905  0.53024577     2.84220
O443        O  0.44403118  0.48696994  0.51184794    -1.08490
O444        O  0.46648807  0.04085787  0.58288238    -1.07990
C445        C  0.39576132  0.07435898  0.58977220     1.06670
C446        C  0.48643792  0.03413335  0.95146255     1.09290
C447        C  0.49175425  0.05264357  0.65454436     1.06850
C448        C  0.35260485  0.46202719  0.61862974     1.07210
C449        C  0.43566528  0.42047332  0.97354890     1.06790
C450        C  0.07731934  0.50424293  0.51345654     1.06340
C451        C  0.01291370  0.10042770  0.53961534     1.06770
C452        C  0.37541461  0.00907189  0.49658793     1.06280
H453        H  0.01511265  0.03726887  0.51108115     0.32960
O454        O  0.50012152  0.02251714  0.52653184    -1.29580
H455        H  0.38831848  0.01181712  0.56881081     0.32980
O456        O  0.41044380  0.50463345  0.56762554    -1.30970
C457        C  0.40983171  0.41824569  0.73104837    -0.05700
C458        C  0.43781522  0.41487132  0.70877539     0.00230
C459        C  0.45909011  0.38976713  0.71738226    -0.08340
C460        C  0.45078042  0.36927140  0.74665998    -0.05720
C461        C  0.42155865  0.37097385  0.76736075     0.00210
C462        C  0.40033877  0.39579304  0.75929868    -0.08250
C463        C  0.36698682  0.39896139  0.77853758     0.62130
H464        H  0.39406496  0.43740415  0.72562480     0.12820
H465        H  0.46742176  0.35110885  0.75363561     0.12830
C466        C  0.49073090  0.38351761  0.69637710     0.62360
F467        F  0.34310178  0.40267073  0.75659316    -0.22810
F468        F  0.36960817  0.42686992  0.79654303    -0.20140
F469        F  0.35593922  0.37126182  0.79990861    -0.19810
F470        F  0.00870449  0.41339052  0.68570081    -0.19870
F471        F  0.48271212  0.36623030  0.66936890    -0.20190
F472        F  0.51134789  0.36497792  0.71394051    -0.22860
C473        C  0.40903795  0.37157717  0.94734862    -0.05700
C474        C  0.42911458  0.40219992  0.94375978     0.00230
C475        C  0.44486512  0.41396204  0.91181862    -0.08340
C476        C  0.44312803  0.39301097  0.88575341    -0.05720
C477        C  0.42380810  0.36206062  0.88921147     0.00210
C478        C  0.40548235  0.35148359  0.92029180    -0.08250
C479        C  0.38176822  0.31974990  0.92486257     0.62130
H480        H  0.39672905  0.36313289  0.97168728     0.12820
H481        H  0.45682826  0.40106114  0.86192162     0.12830
C482        C  0.46285001  0.44887963  0.90442475     0.62360
F483        F  0.36228930  0.31749359  0.95497100    -0.22810
F484        F  0.39950181  0.29216235  0.92410239    -0.20140
F485        F  0.36068923  0.31917854  0.89986721    -0.19810
F486        F  0.49450348  0.44977256  0.91472334    -0.19870
F487        F  0.44516470  0.47193048  0.92038003    -0.20190
F488        F  0.46595603  0.45843832  0.87075119    -0.22860
C489        C  0.98615684  0.07756776  0.74310656    -0.05700
C490        C  0.00380210  0.10946893  0.73994649     0.00230
C491        C  0.02078459  0.12147658  0.70855145    -0.08340
C492        C  0.01727189  0.10191760  0.68106854    -0.05720
C493        C  0.49869948  0.07046280  0.68447355     0.00210
C494        C  0.48471851  0.05722369  0.71653730    -0.08250
C495        C  0.46888215  0.02140246  0.72339722     0.62130
H496        H  0.97329545  0.06832317  0.76700916     0.12820
H497        H  0.52831745  0.11146950  0.65655297     0.12830
C498        C  0.04287414  0.15426914  0.70382111     0.62360
F499        F  0.96751037  0.51096998  0.75677596    -0.22810
F500        F  0.98744867  0.49999037  0.70595889    -0.20140
F501        F  0.43672024  0.51886143  0.71433383    -0.19810
F502        F  0.06332618  0.15680576  0.72925316    -0.19870
F503        F  0.02351960  0.18067073  0.70338402    -0.20190
F504        F  0.06307072  0.15674576  0.67412924    -0.22860
C505        C  0.02743570  0.08195177  0.87185559    -0.05700
C506        C  0.99999477  0.09708215  0.86121957     0.00230
C507        C  0.46765795  0.08684726  0.87709115    -0.08340
C508        C  0.46446324  0.06433640  0.90525644    -0.05720
C509        C  0.49209657  0.05104113  0.91757028     0.00210
C510        C  0.02399136  0.05854357  0.89972418    -0.08250
C511        C  0.05411788  0.04225362  0.90999684     0.62130
H512        H  0.05160492  0.08880817  0.85818407     0.12820
H513        H  0.44013364  0.05758401  0.91867197     0.12830
C514        C  0.43642133  0.09918489  0.86433123     0.62360
F515        F  0.08285095  0.05416144  0.88997816    -0.22810
F516        F  0.04894919  0.50817610  0.90767610    -0.20140
F517        F  0.05921899  0.04841655  0.94227489    -0.19810
F518        F  0.43636343  0.09500003  0.83073788    -0.19870
F519        F  0.43514116  0.13253054  0.86961649    -0.20190
F520        F  0.40768902  0.08179848  0.88031953    -0.22860
C521        C  0.44237294  0.20558268  0.81115695    -0.05700
C522        C  0.47713732  0.20547579  0.80894441     0.00230
C523        C  0.99727845  0.23522150  0.81308680    -0.08340
C524        C  0.48178762  0.26440142  0.81924287    -0.05720
C525        C  0.44698743  0.26453446  0.82140383     0.00210
C526        C  0.42687682  0.23473993  0.81729879    -0.08250
C527        C  0.38920855  0.23377465  0.81997350     0.62130
H528        H  0.42743854  0.18241915  0.80836191     0.12820
H529        H  0.99675107  0.28753772  0.82206486     0.12830
C530        C  0.03494191  0.23600247  0.81061283     0.62360
F531        F  0.37417857  0.20191766  0.81743078    -0.22810
F532        F  0.37962880  0.25450047  0.79483098    -0.20140
F533        F  0.37783089  0.24436731  0.85034525    -0.19810
F534        F  0.04647811  0.22593002  0.78005829    -0.19870
F535        F  0.04423539  0.21470259  0.83545913    -0.20190
F536        F  0.05007899  0.26767615  0.81382981    -0.22860
C537        C  0.15448485  0.48338332  0.96127200    -0.05700
C538        C  0.17321305  0.01442078  0.95654750     0.00230
C539        C  0.16305910  0.04126436  0.97442544    -0.08340
C540        C  0.13272981  0.03636856  0.99506748    -0.05720
C541        C  0.11223292  0.00604838  0.99746955     0.00210
C542        C  0.12443206  0.47846542  0.98165559    -0.08250
C543        C  0.10626698  0.44364448  0.98582010     0.62130
H544        H  0.16330255  0.46295861  0.94797045     0.12820
H545        H  0.12428638  0.05661415  0.50828759     0.12830
C546        C  0.18322185  0.07520861  0.97022941     0.62360
F547        F  0.12730175  0.41963545  0.97766479    -0.22810
F548        F  0.08075762  0.44160251  0.96537211    -0.20140
F549        F  0.09367814  0.43631886  0.51849787    -0.19810
F550        F  0.18625004  0.08706578  0.93718041    -0.19870
F551        F  0.21456451  0.07280006  0.98041228    -0.20190
F552        F  0.16848253  0.09828126  0.48888835    -0.22860
C553        C  0.31123564  0.04402126  0.94315097    -0.05700
C554        C  0.29501329  0.01417865  0.93420433     0.00230
C555        C  0.30683895  0.98340982  0.94329724    -0.08340
C556        C  0.33429193  0.48354884  0.96196085    -0.05720
C557        C  0.34958047  0.01314340  0.97297703     0.00210
C558        C  0.33859527  0.04425552  0.96234840    -0.08250
C559        C  0.35455160  0.07747750  0.97174290     0.62130
H560        H  0.30132436  0.06714343  0.93593414     0.12820
H561        H  0.34345975  0.45998758  0.96891274     0.12830
C562        C  0.28954346  0.45040164  0.93473950     0.62360
F563        F  0.33840227  0.10404202  0.96019543    -0.22810
F564        F  0.38731095  0.08252869  0.95801760    -0.20140
F565        F  0.35335944  0.07778172  0.50591362    -0.19810
F566        F  0.29109205  0.44917002  0.90065664    -0.19870
F567        F  0.25653248  0.44716746  0.94775911    -0.20190
F568        F  0.30422060  0.42331372  0.94744698    -0.22860
C569        C  0.14259628  0.46713437  0.65210156    -0.05700
C570        C  0.13705080  0.45629226  0.68610645     0.00230
C571        C  0.10354690  0.44832239  0.70045509    -0.08340
C572        C  0.07760942  0.45282931  0.68028891    -0.05720
C573        C  0.08371728  0.46014546  0.64594622     0.00210
C574        C  0.11686574  0.46658373  0.63140019    -0.08250
C575        C  0.12529475  0.47197174  0.59407140     0.62130
H576        H  0.16762377  0.47547833  0.64126112     0.12820
H577        H  0.05240128  0.45155587  0.69162581     0.12830
C578        C  0.09408989  0.43481497  0.73629606     0.62360
F579        F  0.15888367  0.47043776  0.58499133    -0.22810
F580        F  0.11711623  0.50285854  0.58277185    -0.20140
F581        F  0.10778959  0.44732762  0.57876293    -0.19810
F582        F  0.09572468  0.46061490  0.75705829    -0.19870
F583        F  0.11481898  0.41122273  0.74547997    -0.20190
F584        F  0.06181564  0.41940575  0.74065220    -0.22860
C585        C  0.29452734  0.43327226  0.62870497    -0.05700
C586        C  0.31990589  0.45492940  0.63963415     0.00330
C587        C  0.31361309  0.46873257  0.67112287    -0.08340
C588        C  0.28189364  0.46248294  0.68795804    -0.05720
C589        C  0.25716449  0.43952711  0.67834225     0.00210
C590        C  0.26373027  0.42420007  0.64803720    -0.08250
C591        C  0.23923793  0.39876015  0.63488665     0.62130
H592        H  0.29909596  0.42263662  0.60506013     0.12820
H593        H  0.27610958  0.47625408  0.70936915     0.12830
C594        C  0.33963148  0.48871522  0.68908040     0.62360
F595        F  0.25600768  0.37645727  0.61716477    -0.22810
F596        F  0.22005814  0.41471318  0.61350224    -0.20140
F597        F  0.21901949  0.38051074  0.66036124    -0.19810
F598        F  0.35069251  0.01887682  0.67188558    -0.19870
F599        F  0.36610969  0.47038080  0.69271757    -0.20190
F600        F  0.32762073  0.49562419  0.72074704    -0.22860
C601        C  0.21928350  0.00016857  0.78425668    -0.05700
C602        C  0.20484870  0.46716382  0.78418381     0.00230
C603        C  0.19802769  0.44705618  0.81430543    -0.08340
C604        C  0.20588608  0.46082713  0.84393964    -0.05720
C605        C  0.22043739  0.99380950  0.84407481     0.00210
C606        C  0.22719222  0.01397557  0.81390811    -0.08250
C607        C  0.24211054  0.04994667  0.81324162     0.62130
H608        H  0.22454100  0.01493149  0.76074616     0.12820
H609        H  0.20068196  0.44595851  0.86739644     0.12830
C610        C  0.18235486  0.41137255  0.81491472     0.62360
F611        F  0.24492010  0.06571646  0.78159439    -0.22810
F612        F  0.27356992  0.05107041  0.82400694    -0.20140
F613        F  0.22210874  0.06742645  0.83385993    -0.19810
F614        F  0.20285226  0.39293332  0.79588091    -0.19870
F615        F  0.15184122  0.41103257  0.80214312    -0.20190
F616        F  0.17732322  0.39615325  0.84682241    -0.22860
C617        C  0.32424194  0.12950323  0.59648263    -0.05700
C618        C  0.34219829  0.16116226  0.58944768     0.00230
C619        C  0.37748409  0.16284243  0.58258937    -0.08340
C620        C  0.39351191  0.13418663  0.58877755    -0.05720
C621        C  0.37579983  0.10269514  0.59505373     0.00210
C622        C  0.34049896  0.09997015  0.59704861    -0.08250
C623        C  0.32025476  0.06634797  0.59793418     0.62130
H624        H  0.29735763  0.12794312  0.60072923     0.12820
H625        H  0.42052244  0.13588550  0.58494665     0.12830
C626        C  0.39947173  0.19294057  0.56590144     0.62360
F627        F  0.28657618  0.06947792  0.59724301    -0.22810
F628        F  0.32441947  0.04762785  0.62652967    -0.20140
F629        F  0.33065660  0.04955758  0.57081006    -0.19810
F630        F  0.41791432  0.20750565  0.58914431    -0.19870
F631        F  0.38154589  0.21614733  0.55086963    -0.20190
F632        F  0.42133492  0.18285533  0.54111444    -0.22860
C633        C  0.38391025  0.28256885  0.59728744    -0.05700
C634        C  0.34927094  0.28200472  0.60560663     0.00230
C635        C  0.33673354  0.31147327  0.61658321    -0.08340
C636        C  0.35797897  0.34140073  0.61278994    -0.05720
C637        C  0.39207344  0.34214853  0.60195738     0.00210
C638        C  0.40573990  0.31185883  0.59647585    -0.08250
C639        C  0.44293635  0.31054938  0.58885639     0.62130
H640        H  0.39389463  0.26022657  0.58974919     0.12820
H641        H  0.34778977  0.36461139  0.61813336     0.12830
C642        C  0.30136211  0.31246019  0.63200328     0.62360
F643        F  0.45089851  0.27853904  0.58373443    -0.22810
F644        F  0.45893490  0.32121029  0.61551857    -0.20140
F645        F  0.45460707  0.33088812  0.56062460    -0.19810
F646        F  0.28763648  0.28144854  0.64590551    -0.19870
F647        F  0.28206503  0.32345159  0.60800112    -0.20190
F648        F  0.30079914  0.33420380  0.65704834    -0.22860
C649        C  0.01703267  0.16263303  0.53878222    -0.05700
C650        C  0.03101524  0.13375387  0.52961230     0.00230
C651        C  0.06344024  0.13672927  0.51282032    -0.08340
C652        C  0.08116700  0.16822585  0.50639652    -0.05720
C653        C  0.06916760  0.19683837  0.51874168     0.00210
C654        C  0.03575139  0.19434607  0.53449625    -0.08250
C655        C  0.01948763  0.22398746  0.54766399     0.62130
H656        H  0.49188047  0.15982888  0.55093168     0.12820
H657        H  0.10610677  0.17030642  0.49379075     0.12830
C658        C  0.08139040  0.10659259  0.50540144     0.62360
F659        F  0.49082576  0.21388781  0.56852433    -0.22810
F660        F  0.01041760  0.24373270  0.02150045    -0.20140
F661        F  0.04086681  0.24257905  0.56566641    -0.19810
F662        F  0.06053210  0.08264723  0.49287346    -0.19870
F663        F  0.09213971  0.09395114  0.53465579    -0.20190
F664        F  0.10860552  0.11463036  0.48217530    -0.22860
C665        C  0.08564156  0.32520653  0.55083335    -0.05700
C666        C  0.09452039  0.31837534  0.51813281     0.00230
C667        C  0.08413391  0.33812941  0.99172340    -0.08340
C668        C  0.06299158  0.36304993  0.99922662    -0.05720
C669        C  0.05248581  0.36909105  0.53227261     0.00210
C670        C  0.06506235  0.35017885  0.55874962    -0.08250
C671        C  0.05726562  0.35529950  0.59547548     0.62130
H672        H  0.09384892  0.30931895  0.57043013     0.12820
H673        H  0.05411609  0.37763369  0.97911684     0.12830
C674        C  0.09604100  0.33324372  0.95597770     0.62360
F675        F  0.07503742  0.33610762  0.61569389    -0.22810
F676        F  0.52386615  0.34628808  0.60508507    -0.20140
F677        F  0.06560625  0.38824565  0.60118504    -0.19810
F678        F  0.08376619  0.30215678  0.94753962    -0.19870
F679        F  0.13048858  0.33569944  0.95225886    -0.20190
F680        F  0.08576553  0.35709650  0.93409673    -0.22860
C681        C  0.24520219  0.24746260  0.53129983    -0.05700
C682        C  0.24671740  0.22829480  0.56122784     0.00230
C683        C  0.21657391  0.21607501  0.58059014    -0.08340
C684        C  0.18600900  0.22417164  0.56963500    -0.05720
C685        C  0.18438510  0.24372448  0.53989533     0.00210
C686        C  0.21457321  0.25501361  0.51994587    -0.08250
C687        C  0.21471552  0.27425815  0.48643048     0.62130
H688        H  0.26846432  0.25687997  0.51700354     0.12820
H689        H  0.16286792  0.21528237  0.58439741     0.12830
C690        C  0.21666174  0.19505315  0.61305870     0.62360
F691        F  0.24591088  0.27734007  0.46880781    -0.22810
F692        F  0.20582700  0.30601527  0.49076630    -0.20140
F693        F  0.19256232  0.25787014  0.96749114    -0.19810
F694        F  0.23597894  0.21199612  0.63419293    -0.19870
F695        F  0.22943487  0.16523290  0.60691300    -0.20190
F696        F  0.18490512  0.18766138  0.62909337    -0.22860
C697        C  0.10923173  0.78658034  0.51385831     0.03210
C698        C  0.14080016  0.78190921  0.02434160    -0.12940
C699        C  0.15058866  0.74957031  0.02955761     0.00710
C700        C  0.12666746  0.72222302  0.02796375    -0.11470
C701        C  0.09447922  0.72654897  0.51843473     0.03200
C702        C  0.08733324  0.75880228  0.50892791    -0.10890
H703        H  0.15677936  0.80329740  0.03020250     0.08800
H704        H  0.13312463  0.69739469  0.03472815     0.06330
H705        H  0.06364574  0.76278441  0.50012101     0.06170
C706        C  0.32411703  0.69186965  0.09046585     0.03210
C707        C  0.29399776  0.69436840  0.07583486    -0.12940
C708        C  0.28003037  0.72506062  0.07365720     0.00710
C709        C  0.29840628  0.75369419  0.08282762    -0.11470
C710        C  0.32742213  0.75139064  0.09921741     0.03200
C711        C  0.33819986  0.71969077  0.10522515    -0.10890
H712        H  0.28194558  0.67294550  0.06538976     0.08800
H713        H  0.29005123  0.77770220  0.07664529     0.06330
H714        H  0.35978327  0.71719955  0.11875535     0.06170
C715        C  0.16721362  0.95088556  0.20378475     0.03210
C716        C  0.17077895  0.96056785  0.23609102    -0.12940
C717        C  0.19915636  0.95400163  0.25177088     0.00710
C718        C  0.22503974  0.93994547  0.23426187    -0.11470
C719        C  0.22472307  0.93619020  0.19998460     0.03200
C720        C  0.19477785  0.93912534  0.18602963    -0.10890
H721        H  0.15249986  0.97425995  0.24870291     0.08800
H722        H  0.24747342  0.93650384  0.24623940     0.06330
H723        H  0.19362260  0.93478089  0.16037024     0.06170
C724        C  0.26253702  0.51543919  0.42064443     0.03210
C725        C  0.25837170  0.50934606  0.38747916    -0.12940
C726        C  0.22631507  0.50657981  0.37667060     0.00710
C727        C  0.19879903  0.51102346  0.39893699    -0.11470
C728        C  0.20284103  0.51717638  0.43206148     0.03200
C729        C  0.23471313  0.51897294  0.44278404    -0.10890
H730        H  0.27967174  0.50493677  0.37076476     0.08800
H731        H  0.17392907  0.50761749  0.39100910     0.06330
H732        H  0.23776019  0.52074769  0.46890926     0.06170
C733        C  0.00525013  0.62732116  0.27111292     0.03210
C734        C  0.01148798  0.60893575  0.30024563    -0.12940
C735        C  0.00486623  0.62097730  0.33143871     0.00710
C736        C  0.99687665  0.65382081  0.33355569    -0.11470
C737        C  0.99131826  0.67315379  0.30497246     0.03200
C738        C  0.99432810  0.65935415  0.27388215    -0.10890
H739        H  0.01810784  0.58359597  0.29897365     0.08800
H740        H  0.99234297  0.66342405  0.35773771     0.06330
H741        H  0.98630360  0.67277303  0.25259530     0.06170
C742        C  0.42146016  0.84393815  0.35842894     0.03210
C743        C  0.43167056  0.81163192  0.35600475    -0.12940
C744        C  0.43271752  0.79686240  0.32545407     0.00710
C745        C  0.42489481  0.81515976  0.29713809    -0.11470
C746        C  0.41744295  0.84844419  0.29847994     0.03200
C747        C  0.41460403  0.86203115  0.32937138    -0.10890
H748        H  0.44056682  0.79871027  0.37714082     0.08800
H749        H  0.42774497  0.80448513  0.27330235     0.06330
H750        H  0.40974733  0.88790993  0.33042468     0.06170
O751        O  0.02639893  0.91764050  0.01395080    -0.86410
O752        O  0.43102267  0.96340749  0.17046429    -0.86570
O753        O  0.03280719  0.94084702  0.12448846    -0.88240
O754        O  0.43984592  0.88243493  0.10216896    -0.87000
O755        O  0.39584449  0.89458589  0.07321535    -0.86590
O756        O  0.05578418  0.99503303  0.11280807    -0.87960
O757        O  0.45888545  0.92033092  0.15297307    -0.86440
O758        O  0.01476785  0.89577794  0.06738506    -0.86020
Zr759      Zr  0.48094394  0.93220002  0.09683294     2.84310
O760        O  0.42814823  0.95061426  0.10067800    -1.08000
O761        O  0.01731814  0.96858319  0.06039764    -1.08730
C762        C  0.02963891  0.89580819  0.03810353     1.06700
C763        C  0.44279642  0.93464177  0.17551959     1.06640
C764        C  0.05550886  0.96539306  0.12642071     1.09630
C765        C  0.41077572  0.87514713  0.09199210     1.07410
H766        H  0.49197527  0.98501682  0.13801073     0.32960
O767        O  0.48407681  0.98568394  0.11624020    -1.28950
H768        H  0.45939373  0.90932945  0.03749969     0.32640
O769        O  0.46051619  0.93167104  0.04483263    -1.30630
O770        O  0.39933714  0.55314987  0.11438006    -0.86400
O771        O  0.49895838  0.00635311  0.45802386    -0.87900
O772        O  0.01559004  0.55074479  0.13128090    -0.86480
O773        O  0.35764526  0.94928126  0.09014620    -0.86530
O774        O  0.41174989  0.92221861  0.99679518    -0.86240
O775        O  0.07070533  0.51925654  0.04036837    -0.86050
O776        O  0.48445336  0.59271000  0.02841046    -0.86420
O777        O  0.39837682  0.53311466  0.99863486    -0.85880
O778        O  0.02826397  0.58065611  0.05771897    -0.86940
O779        O  0.37328884  0.98042980  0.01318828    -0.86100
O780        O  0.46154628  0.53962415  0.15439787    -0.86500
O781        O  0.05554705  0.98733162  0.99850080    -0.86220
O782        O  0.46580081  0.93356738  0.47384080    -0.85870
O783        O  0.37444499  0.98091559  0.13104578    -0.86280
O784        O  0.40986024  0.57436111  0.05997562    -0.86580
O785        O  0.46837245  0.54917567  0.47240954    -0.87910
Zr786      Zr  0.43090959  0.00367951  0.12015333     2.83100
Zr787      Zr  0.49715069  0.96844679  0.00837203     2.83500
Zr788      Zr  0.01981894  0.52263161  0.07885681     2.84090
Zr789      Zr  0.40731657  0.95095836  0.04887662     2.83360
Zr790      Zr  0.44693101  0.54073178  0.03024162     2.84220
O791        O  0.44403185  0.98697019  0.01184832    -1.08490
O792        O  0.46649000  0.54085732  0.08287889    -1.07990
C793        C  0.39576406  0.57435991  0.08976928     1.06670
C794        C  0.48643785  0.53413336  0.45146285     1.09290
C795        C  0.49175619  0.55264481  0.15454187     1.06850
C796        C  0.35260508  0.96202734  0.11862975     1.07210
C797        C  0.43566167  0.92047030  0.47354994     1.06790
C798        C  0.07732013  0.00424283  0.01345628     1.06340
C799        C  0.01291318  0.60042690  0.03961559     1.06770
C800        C  0.37541727  0.50907374  0.99658684     1.06280
H801        H  0.01511091  0.53726709  0.01108342     0.32960
O802        O  0.50012794  0.52252433  0.02652517    -1.29580
H803        H  0.38832408  0.51181948  0.06880707     0.32980
O804        O  0.41044466  0.00463377  0.06762530    -1.30970
C805        C  0.40983157  0.91824549  0.23104820    -0.05700
C806        C  0.43781522  0.91487126  0.20877533     0.00230
C807        C  0.45909019  0.88976719  0.21738232    -0.08340
C808        C  0.45078051  0.86927148  0.24666007    -0.05720
C809        C  0.42155863  0.87097379  0.26736071     0.00210
C810        C  0.40033863  0.89579283  0.25929852    -0.08250
C811        C  0.36698656  0.89896101  0.27853728     0.62130
H812        H  0.39406472  0.93740381  0.22562451     0.12820
H813        H  0.46742193  0.85110905  0.25363578     0.12830
C814        C  0.49073104  0.88351776  0.19637723     0.62360
F815        F  0.34310164  0.90267041  0.25659276    -0.22810
F816        F  0.36960773  0.92686944  0.29654290    -0.20140
F817        F  0.35593893  0.87126132  0.29990814    -0.19810
F818        F  0.00870467  0.91339031  0.18570057    -0.19870
F819        F  0.48271238  0.86623041  0.16936902    -0.20190
F820        F  0.51134807  0.86497816  0.21394070    -0.22860
C821        C  0.40903493  0.87157538  0.44734867    -0.05700
C822        C  0.42911097  0.90219826  0.44376034     0.00230
C823        C  0.44486241  0.91396087  0.41181961    -0.08340
C824        C  0.44312615  0.89301008  0.38575415    -0.05720
C825        C  0.42380640  0.86205963  0.38921164     0.00210
C826        C  0.40548019  0.85148214  0.42029165    -0.08250
C827        C  0.38176634  0.81974836  0.42486199     0.62130
H828        H  0.39672595  0.86313068  0.47168719     0.12820
H829        H  0.45682689  0.90106052  0.36192266     0.12830
C830        C  0.46284763  0.94887848  0.40442646     0.62360
F831        F  0.36228695  0.81749185  0.45497018    -0.22810
F832        F  0.39950021  0.79216100  0.42410207    -0.20140
F833        F  0.36068782  0.81917703  0.39986627    -0.19810
F834        F  0.49450113  0.94977098  0.41472498    -0.19870
F835        F  0.44516262  0.97192920  0.42038227    -0.20190
F836        F  0.46595367  0.95843784  0.37075302    -0.22860
C837        C  0.98615661  0.57756771  0.24310692    -0.05700
C838        C  0.00380194  0.60946886  0.23994675     0.00230
C839        C  0.02078444  0.62147645  0.20855170    -0.08340
C840        C  0.01727169  0.60191742  0.18106887    -0.05720
C841        C  0.49870146  0.57046347  0.18447183     0.00210
C842        C  0.48472065  0.55722384  0.21653568    -0.08250
C843        C  0.46888481  0.52140244  0.22339551     0.62130
H844        H  0.97329523  0.56832317  0.26700953     0.12820
H845        H  0.52831809  0.61147141  0.15655197     0.12830
C846        C  0.04287402  0.65426900  0.20382126     0.62360
F847        F  0.96751068  0.01097008  0.25677570    -0.22810
F848        F  0.98744893  0.99999034  0.20595865    -0.20140
F849        F  0.43672031  0.01886081  0.21433402    -0.19810
F850        F  0.06332610  0.65680564  0.22925327    -0.19870
F851        F  0.02351950  0.68067060  0.20338416    -0.20190
F852        F  0.06307056  0.65674557  0.17412936    -0.22860
C853        C  0.02743550  0.58195149  0.37185578    -0.05700
C854        C  0.99999466  0.59708205  0.36121982     0.00230
C855        C  0.46765785  0.58684718  0.37709108    -0.08340
C856        C  0.46446314  0.56433641  0.40525650    -0.05720
C857        C  0.49209648  0.55104116  0.41757044     0.00210
C858        C  0.02399115  0.55854335  0.39972446    -0.08250
C859        C  0.05411760  0.54225311  0.40999677     0.62130
H860        H  0.05160468  0.58880770  0.35818412     0.12820
H861        H  0.44013354  0.55758409  0.41867204     0.12830
C862        C  0.43642125  0.59918482  0.36433108     0.62360
F863        F  0.08285062  0.55416079  0.38997792    -0.22810
F864        F  0.04894965  0.00817641  0.40767620    -0.20140
F865        F  0.05921902  0.54841589  0.44227478    -0.19810
F866        F  0.43636341  0.59500002  0.33073770    -0.19870
F867        F  0.43514105  0.63253047  0.36961635    -0.20190
F868        F  0.40768892  0.58179840  0.38031930    -0.22860
C869        C  0.44237284  0.70558249  0.31115681    -0.05700
C870        C  0.47713722  0.70547567  0.30894423     0.00230
C871        C  0.99727847  0.73522151  0.31308678    -0.08340
C872        C  0.48178741  0.76440130  0.31924271    -0.05720
C873        C  0.44698720  0.76453424  0.32140370     0.00210
C874        C  0.42687665  0.73473970  0.31729866    -0.08250
C875        C  0.38920838  0.73377438  0.31997333     0.62130
H876        H  0.42743847  0.68241893  0.30836178     0.12820
H877        H  0.99675112  0.78753777  0.32206472     0.12830
C878        C  0.03494193  0.73600247  0.31061279     0.62360
F879        F  0.37417845  0.70191739  0.31743050    -0.22810
F880        F  0.37962866  0.75450025  0.29483084    -0.20140
F881        F  0.37783065  0.74436695  0.35034509    -0.19810
F882        F  0.04647810  0.72592995  0.28005827    -0.19870
F883        F  0.04423542  0.71470264  0.33545912    -0.20190
F884        F  0.05007903  0.76767616  0.31382969    -0.22860
C885        C  0.15448476  0.98338331  0.46127154    -0.05700
C886        C  0.17321261  0.51442105  0.45654754     0.00230
C887        C  0.16305869  0.54126451  0.47442570    -0.08340
C888        C  0.13272935  0.53636864  0.49506777    -0.05720
C889        C  0.11223229  0.50604854  0.49746967     0.00210
C890        C  0.12443221  0.97846549  0.48165539    -0.08250
C891        C  0.10626700  0.94364460  0.48582021     0.62130
H892        H  0.16330228  0.96295856  0.44796993     0.12820
H893        H  0.12428604  0.55661393  0.00828800     0.12830
C894        C  0.18322148  0.57520875  0.47022986     0.62360
F895        F  0.12730174  0.91963545  0.47766534    -0.22810
F896        F  0.08075773  0.94160243  0.46537211    -0.20140
F897        F  0.09367819  0.93631888  0.01849785    -0.19810
F898        F  0.18624989  0.58706604  0.43718089    -0.19870
F899        F  0.21456407  0.57280015  0.48041291    -0.20190
F900        F  0.16848168  0.59828139  0.98888836    -0.22860
C901        C  0.31123531  0.54402133  0.44315102    -0.05700
C902        C  0.29501289  0.51417876  0.43420438     0.00230
C903        C  0.30683848  0.48340988  0.44329726    -0.08340
C904        C  0.33429069  0.98354762  0.46196087    -0.05720
C905        C  0.34958001  0.51314332  0.47297706     0.00210
C906        C  0.33859493  0.54425551  0.46234844    -0.08250
C907        C  0.35455140  0.57747746  0.47174291     0.62130
H908        H  0.30132410  0.56714354  0.43593420     0.12820
H909        H  0.34345831  0.95998629  0.46891285     0.12830
C910        C  0.28954280  0.95040082  0.43473893     0.62360
F911        F  0.33840212  0.60404204  0.46019549    -0.22810
F912        F  0.38731073  0.58252858  0.45801754    -0.20140
F913        F  0.35336051  0.57778267  0.00591336    -0.19810
F914        F  0.29109195  0.94916937  0.40065604    -0.19870
F915        F  0.25653171  0.94716671  0.44775813    -0.20190
F916        F  0.30421972  0.92331282  0.44744661    -0.22860
C917        C  0.14259639  0.96713407  0.15210129    -0.05700
C918        C  0.13705086  0.95629193  0.18610617     0.00230
C919        C  0.10354694  0.94832217  0.20045477    -0.08340
C920        C  0.07760947  0.95282924  0.18028857    -0.05720
C921        C  0.08371738  0.96014556  0.14594588     0.00210
C922        C  0.11686588  0.96658360  0.13139991    -0.08250
C923        C  0.12529494  0.97197154  0.09407114     0.62130
H924        H  0.16762391  0.97547793  0.14126087     0.12820
H925        H  0.05240133  0.95155583  0.19162545     0.12830
C926        C  0.09408992  0.93481479  0.23629577     0.62360
F927        F  0.15888387  0.97043759  0.08499110    -0.22810
F928        F  0.11711641  0.00285832  0.08277155    -0.20140
F929        F  0.10778981  0.94732737  0.07876270    -0.19810
F930        F  0.09572477  0.96061474  0.25705798    -0.19870
F931        F  0.11481898  0.91122252  0.24547974    -0.20190
F932        F  0.06181566  0.91940561  0.24065194    -0.22860
C933        C  0.29452758  0.93327230  0.12870479    -0.05700
C934        C  0.31990605  0.95492948  0.13963407     0.00330
C935        C  0.31361311  0.96873261  0.17112279    -0.08340
C936        C  0.28189363  0.96248283  0.18795791    -0.05720
C937        C  0.25716458  0.93952694  0.17834202     0.00210
C938        C  0.26373046  0.92420002  0.14803693    -0.08250
C939        C  0.23923819  0.89876015  0.13488620     0.62130
H940        H  0.29909630  0.92263674  0.10505993     0.12820
H941        H  0.27610947  0.97625390  0.20936904     0.12830
C942        C  0.33963136  0.98871540  0.18908036     0.62360
F943        F  0.25600799  0.87645751  0.11716405    -0.22810
F944        F  0.22005828  0.91471328  0.11350197    -0.20140
F945        F  0.21901986  0.88051048  0.16036071    -0.19810
F946        F  0.35069435  0.51887701  0.17188577    -0.19870
F947        F  0.36610963  0.97038109  0.19271769    -0.20190
F948        F  0.32762048  0.99562445  0.22074692    -0.22860
C949        C  0.21928402  0.50016901  0.28425646    -0.05700
C950        C  0.20484873  0.96716350  0.28418350     0.00230
C951        C  0.19802764  0.94705594  0.31430516    -0.08340
C952        C  0.20588598  0.96082697  0.34393933    -0.05720
C953        C  0.22043725  0.49380980  0.34407468     0.00210
C954        C  0.22719235  0.51397595  0.31390804    -0.08250
C955        C  0.24211052  0.54994708  0.31324177     0.62130
H956        H  0.22454172  0.51493200  0.26074600     0.12820
H957        H  0.20068183  0.94595841  0.36739616     0.12830
C958        C  0.18235479  0.91137232  0.31491453     0.62360
F959        F  0.24492031  0.56571697  0.28159457    -0.22810
F960        F  0.27356977  0.55107090  0.32400738    -0.20140
F961        F  0.22210845  0.56742671  0.33385996    -0.19810
F962        F  0.20285220  0.89293302  0.29588081    -0.19870
F963        F  0.15184118  0.91103233  0.30214287    -0.20190
F964        F  0.17732308  0.89615310  0.34682225    -0.22860
C965        C  0.32424329  0.62950338  0.09648185    -0.05700
C966        C  0.34219915  0.66116261  0.08944667     0.00230
C967        C  0.37748493  0.66284319  0.08258778    -0.08340
C968        C  0.39351325  0.63418753  0.08877503    -0.05720
C969        C  0.37580174  0.60269577  0.09505080     0.00210
C970        C  0.34050069  0.59997046  0.09704720    -0.08250
C971        C  0.32025650  0.56634820  0.09793371     0.62130
H972        H  0.29735900  0.62794303  0.10072917     0.12820
H973        H  0.42052379  0.63588683  0.08494381     0.12830
C974        C  0.39947209  0.69294163  0.06589995     0.62360
F975        F  0.28657777  0.56947796  0.09724333    -0.22810
F976        F  0.32442196  0.54762849  0.12652924    -0.20140
F977        F  0.33065774  0.54955757  0.07080959    -0.19810
F978        F  0.41791506  0.70750647  0.08914266    -0.19870
F979        F  0.38154583  0.71614844  0.05086882    -0.20190
F980        F  0.42133493  0.68285681  0.04111241    -0.22860
C981        C  0.38391022  0.78256906  0.09728742    -0.05700
C982        C  0.34927089  0.78200489  0.10560654     0.00230
C983        C  0.33673347  0.81147343  0.11658315    -0.08340
C984        C  0.35797891  0.84140090  0.11278995    -0.05720
C985        C  0.39207340  0.84214873  0.10195744     0.00210
C986        C  0.40573986  0.81185903  0.09647592    -0.08250
C987        C  0.44293632  0.81054956  0.08885653     0.62130
H988        H  0.39389465  0.76022681  0.08974916     0.12820
H989        H  0.34778970  0.86461156  0.11813339     0.12830
C990        C  0.30136204  0.81246031  0.13200324     0.62360
F991        F  0.45089848  0.77853922  0.08373459    -0.22810
F992        F  0.45893482  0.82121047  0.11551873    -0.20140
F993        F  0.45460708  0.83088829  0.06062474    -0.19810
F994        F  0.28763651  0.78144866  0.14590556    -0.19870
F995        F  0.28206489  0.82345157  0.10800108    -0.20190
F996        F  0.30079902  0.83420399  0.15704823    -0.22860
C997        C  0.01703249  0.66263256  0.03878268    -0.05700
C998        C  0.03101469  0.63375325  0.02961238     0.00230
C999        C  0.06343941  0.63672862  0.01281982    -0.08340
C1000       C  0.08116651  0.66822514  0.00639623    -0.05720
C1001       C  0.06916742  0.69683778  0.01874153     0.00210
C1002       C  0.03575135  0.69434561  0.03449645    -0.08250
C1003       C  0.01948794  0.72398719  0.04766433     0.62130
H1004       H  0.49188166  0.65983314  0.05093419     0.12820
H1005       H  0.10610624  0.67030550  0.99379039     0.12830
C1006       C  0.08138915  0.60659175  0.00540070     0.62360
F1007       F  0.49083036  0.71389136  0.06852664    -0.22810
F1008       F  0.01041745  0.74373280  0.52150066    -0.20140
F1009       F  0.04086742  0.74257869  0.06566654    -0.19810
F1010       F  0.06053015  0.58264594  0.99287411    -0.19870
F1011       F  0.09213958  0.59395105  0.03465477    -0.20190
F1012       F  0.10860348  0.61462916  0.98217351    -0.22860
C1013       C  0.08564136  0.82520619  0.05083317    -0.05700
C1014       C  0.09452021  0.81837491  0.01813267     0.00230
C1015       C  0.08413376  0.83812949  0.49172317    -0.08340
C1016       C  0.06299150  0.86305013  0.49922637    -0.05720
C1017       C  0.05248588  0.86909100  0.03227232     0.00210
C1018       C  0.06506229  0.85017866  0.05874938    -0.08250
C1019       C  0.05726566  0.85529934  0.09547526     0.62130
H1020       H  0.09384863  0.80931857  0.07042997     0.12820
H1021       H  0.05411613  0.87763397  0.47911658     0.12830
C1022       C  0.09604099  0.83324385  0.45597750     0.62360
F1023       F  0.07503743  0.83610737  0.11569364    -0.22810
F1024       F  0.52386630  0.84628715  0.10508467    -0.20140
F1025       F  0.06560643  0.88824545  0.10118481    -0.19810
F1026       F  0.08376609  0.80215699  0.44753929    -0.19870
F1027       F  0.13048857  0.83569939  0.45225883    -0.20190
F1028       F  0.08576574  0.85709676  0.43409653    -0.22860
C1029       C  0.24520215  0.74746249  0.03129969    -0.05700
C1030       C  0.24671744  0.72829468  0.06122768     0.00230
C1031       C  0.21657398  0.71607472  0.08058994    -0.08340
C1032       C  0.18600901  0.72417116  0.06963477    -0.05720
C1033       C  0.18438503  0.74372402  0.03989513     0.00210
C1034       C  0.21457313  0.75501332  0.01994571    -0.08250
C1035       C  0.21471536  0.77425784  0.98643031     0.62130
H1036       H  0.26846425  0.75687998  0.01700343     0.12820
H1037       H  0.16286794  0.71528175  0.08439716     0.12830
C1038       C  0.21666191  0.69505288  0.11305850     0.62360
F1039       F  0.24591074  0.77733989  0.96880765    -0.22810
F1040       F  0.20582668  0.80601490  0.99076613    -0.20140
F1041       F  0.19256212  0.75786998  0.46749068    -0.19810
F1042       F  0.23597890  0.71199601  0.13419278    -0.19870
F1043       F  0.22943534  0.66523278  0.10691281    -0.20190
F1044       F  0.18490528  0.68766083  0.12909310    -0.22860
C1045       C  0.10923208  0.78658030  0.01385860     0.03210
C1046       C  0.14079980  0.78190913  0.52434127    -0.12940
C1047       C  0.15058823  0.74957018  0.52955713     0.00710
C1048       C  0.12666702  0.72222296  0.52796309    -0.11470
C1049       C  0.09447964  0.72654893  0.01843535     0.03200
C1050       C  0.08733363  0.75880218  0.00892834    -0.10890
H1051       H  0.15677904  0.80329725  0.53020228     0.08800
H1052       H  0.13312416  0.69739459  0.53472737     0.06330
H1053       H  0.06364613  0.76278422  0.00012140     0.06170
C1054       C  0.32411585  0.69186867  0.59046606     0.03210
C1055       C  0.29399686  0.69436751  0.57583462    -0.12940
C1056       C  0.28002943  0.72505970  0.57365709     0.00710
C1057       C  0.29840504  0.75369313  0.58282813    -0.11470
C1058       C  0.32742050  0.75138940  0.59921848     0.03200
C1059       C  0.33819823  0.71968952  0.60522606    -0.10890
H1060       H  0.28194492  0.67294473  0.56538912     0.08800
H1061       H  0.29005000  0.77770117  0.57664590     0.06330
H1062       H  0.35978138  0.71719810  0.61875661     0.06170
C1063       C  0.16721279  0.95088582  0.70378556     0.03210
C1064       C  0.17077822  0.96056822  0.73609179    -0.12940
C1065       C  0.19915543  0.95400153  0.75177180     0.00710
C1066       C  0.22503849  0.93994475  0.73426300    -0.11470
C1067       C  0.22472184  0.93618944  0.69998576     0.03200
C1068       C  0.19477678  0.93912503  0.68603064    -0.10890
H1069       H  0.15249940  0.97426075  0.74870352     0.08800
H1070       H  0.24747209  0.93650281  0.74624059     0.06330
H1071       H  0.19362155  0.93478052  0.66037126     0.06170
C1072       C  0.26253719  0.51543906  0.92064438     0.03210
C1073       C  0.25837187  0.50934593  0.88747910    -0.12940
C1074       C  0.22631523  0.50657964  0.87667054     0.00710
C1075       C  0.19879918  0.51102323  0.89893694    -0.11470
C1076       C  0.20284118  0.51717615  0.93206142     0.03200
C1077       C  0.23471328  0.51897275  0.94278398    -0.10890
H1078       H  0.27967192  0.50493669  0.87076469     0.08800
H1079       H  0.17392923  0.50761724  0.89100905     0.06330
H1080       H  0.23776033  0.52074753  0.96890921     0.06170
C1081       C  0.00525005  0.62732136  0.77111295     0.03210
C1082       C  0.01148793  0.60893596  0.80024565    -0.12940
C1083       C  0.00486618  0.62097750  0.83143872     0.00710
C1084       C  0.99687655  0.65382099  0.83355573    -0.11470
C1085       C  0.99131816  0.67315398  0.80497251     0.03200
C1086       C  0.99432800  0.65935435  0.77388219    -0.10890
H1087       H  0.01810781  0.58359619  0.79897365     0.08800
H1088       H  0.99234286  0.66342421  0.85773775     0.06330
H1089       H  0.98630350  0.67277323  0.75259535     0.06170
C1090       C  0.42146099  0.84393809  0.85842973     0.03210
C1091       C  0.43167154  0.81163189  0.85600549    -0.12940
C1092       C  0.43271801  0.79686214  0.82545489     0.00710
C1093       C  0.42489477  0.81515928  0.79713903    -0.11470
C1094       C  0.41744253  0.84844354  0.79848096     0.03200
C1095       C  0.41460399  0.86203070  0.82937231    -0.10890
H1096       H  0.44056830  0.79871045  0.87714141     0.08800
H1097       H  0.42774483  0.80448469  0.77330325     0.06330
H1098       H  0.40974707  0.88790943  0.83042554     0.06170
O1099       O  0.02639893  0.91764090  0.51395072    -0.86410
O1100       O  0.43102105  0.96340643  0.67046592    -0.86570
O1101       O  0.03280699  0.94084739  0.62448847    -0.88240
O1102       O  0.43984362  0.88243303  0.60217095    -0.87000
O1103       O  0.39584216  0.89458414  0.57321714    -0.86590
O1104       O  0.05578404  0.99503336  0.61280780    -0.87960
O1105       O  0.45888319  0.92032912  0.65297484    -0.86440
O1106       O  0.01476774  0.89577818  0.56738495    -0.86020
Zr1107     Zr  0.48094232  0.93219709  0.59683503     2.84310
O1108       O  0.42814771  0.95061398  0.60067801    -1.08000
O1109       O  0.01731796  0.96858355  0.56039745    -1.08730
C1110       C  0.02963882  0.89580848  0.53810342     1.06700
C1111       C  0.44279461  0.93464063  0.67552119     1.06640
C1112       C  0.05550864  0.96539346  0.62642068     1.09630
C1113       C  0.41077344  0.87514550  0.59199397     1.07410
H1114       H  0.49197258  0.98501252  0.63801671     0.32960
O1115       O  0.48407434  0.98567988  0.61624641    -1.28950
H1116       H  0.45938879  0.90932249  0.53750303     0.32640
O1117       O  0.46051175  0.93166396  0.54483549    -1.30630
O1118       O  0.39933683  0.55314976  0.61438010    -0.86400
O1119       O  0.49895964  0.00635562  0.95801902    -0.87900
O1120       O  0.01558991  0.55074489  0.63128108    -0.86480
O1121       O  0.35764316  0.94927983  0.59014758    -0.86530
O1122       O  0.41174611  0.92221669  0.49679573    -0.86240
O1123       O  0.07070506  0.51925662  0.54036848    -0.86050
O1124       O  0.48445319  0.59270988  0.52841033    -0.86420
O1125       O  0.39837657  0.53311464  0.49863486    -0.85880
O1126       O  0.02826384  0.58065601  0.55771879    -0.86940
O1127       O  0.37328609  0.98042760  0.51318901    -0.86100
O1128       O  0.46154608  0.53962431  0.65439784    -0.86500
O1129       O  0.05554717  0.98733189  0.49850066    -0.86220
O1130       O  0.46580414  0.93357310  0.97383914    -0.85870
O1131       O  0.37444351  0.98091374  0.63104736    -0.86280
O1132       O  0.40985982  0.57436098  0.55997565    -0.86580
O1133       O  0.46837261  0.54917557  0.97240945    -0.87910
Zr1134     Zr  0.43090762  0.00367833  0.62015543     2.83100
Zr1135     Zr  0.49714574  0.96843879  0.50837522     2.83500
Zr1136     Zr  0.01981874  0.52263157  0.57885715     2.84090
Zr1137     Zr  0.40731368  0.95095614  0.54887775     2.83360
Zr1138     Zr  0.44693061  0.54073175  0.53024170     2.84220
O1139       O  0.44402764  0.98696743  0.51184780    -1.08490
O1140       O  0.46648979  0.54085748  0.58287895    -1.07990
C1141       C  0.39576366  0.57435973  0.58976931     1.06670
C1142       C  0.48643796  0.53413321  0.95146278     1.09290
C1143       C  0.49175601  0.55264491  0.65454189     1.06850
C1144       C  0.35260343  0.96202586  0.61863119     1.07210
C1145       C  0.43566545  0.92047341  0.97354911     1.06790
C1146       C  0.07732024  0.00424307  0.51345615     1.06340
C1147       C  0.01291301  0.60042677  0.53961540     1.06770
C1148       C  0.37541706  0.50907371  0.49658682     1.06280
H1149       H  0.01511035  0.53726672  0.51108397     0.32960
O1150       O  0.50012767  0.52252435  0.52652529    -1.29580
H1151       H  0.38832376  0.51181938  0.56880711     0.32980
O1152       O  0.41043828  0.00463124  0.56762890    -1.30970
C1153       C  0.40982935  0.91824379  0.73104904    -0.05700
C1154       C  0.43781382  0.91487077  0.70877694     0.00230
C1155       C  0.45908996  0.88976807  0.71738441    -0.08340
C1156       C  0.45078026  0.86927176  0.74666167    -0.05720
C1157       C  0.42155783  0.87097302  0.76736181     0.00210
C1158       C  0.40033698  0.89579119  0.75929941    -0.08250
C1159       C  0.36698473  0.89895860  0.77853811     0.62130
H1160       H  0.39406147  0.93740100  0.72562467     0.12820
H1161       H  0.46742225  0.85110991  0.75363750     0.12830
C1162       C  0.49073224  0.88352107  0.69638039     0.62360
F1163       F  0.34309957  0.90266669  0.75659359    -0.22810
F1164       F  0.36960505  0.92686748  0.79654316    -0.20140
F1165       F  0.35593803  0.87125908  0.79990950    -0.19810
F1166       F  0.00870421  0.91339155  0.68570071    -0.19870
F1167       F  0.48271612  0.86623205  0.66937242    -0.20190
F1168       F  0.51135061  0.86498438  0.71394514    -0.22860
C1169       C  0.40903804  0.87157699  0.94734918    -0.05700
C1170       C  0.42911474  0.90219973  0.94376015     0.00230
C1171       C  0.44486518  0.91396166  0.91181891    -0.08340
C1172       C  0.44312801  0.89301042  0.88575384    -0.05720
C1173       C  0.42380808  0.86206007  0.88921211     0.00210
C1174       C  0.40548236  0.85148323  0.92029249    -0.08250
C1175       C  0.38176817  0.81974958  0.92486335     0.62130
H1176       H  0.39672913  0.86313286  0.97168787     0.12820
H1177       H  0.45682813  0.90106047  0.86192196     0.12830
C1178       C  0.46284998  0.94887925  0.90442480     0.62360
F1179       F  0.36228946  0.81749323  0.95497190    -0.22810
F1180       F  0.39950171  0.79216199  0.92410294    -0.20140
F1181       F  0.36068900  0.81917831  0.89986815    -0.19810
F1182       F  0.49450347  0.94977235  0.91472335    -0.19870
F1183       F  0.44516463  0.97193017  0.92037994    -0.20190
F1184       F  0.46595593  0.95843773  0.87075119    -0.22860
C1185       C  0.98615652  0.57756789  0.74310699    -0.05700
C1186       C  0.00380183  0.60946906  0.73994679     0.00230
C1187       C  0.02078430  0.62147664  0.70855173    -0.08340
C1188       C  0.01727153  0.60191760  0.68106892    -0.05720
C1189       C  0.49870129  0.57046355  0.68447183     0.00210
C1190       C  0.48472056  0.55722387  0.71653567    -0.08250
C1191       C  0.46888471  0.52140247  0.72339546     0.62130
H1192       H  0.97329517  0.56832334  0.76700962     0.12820
H1193       H  0.52831793  0.61147148  0.65655196     0.12830
C1194       C  0.04287386  0.65426920  0.70382126     0.62360
F1195       F  0.96751074  0.01096991  0.75677550    -0.22810
F1196       F  0.98744894  0.99999030  0.70595839    -0.20140
F1197       F  0.43671790  0.01886174  0.71433497    -0.19810
F1198       F  0.06332597  0.65680588  0.72925324    -0.19870
F1199       F  0.02351931  0.68067079  0.70338415    -0.20190
F1200       F  0.06307038  0.65674577  0.67412934    -0.22860
C1201       C  0.02743556  0.58195176  0.87185577    -0.05700
C1202       C  0.99999466  0.59708223  0.86121981     0.00230
C1203       C  0.46765805  0.58684704  0.87709108    -0.08340
C1204       C  0.46446330  0.56433627  0.90525648    -0.05720
C1205       C  0.49209661  0.55104098  0.91757041     0.00210
C1206       C  0.02399124  0.55854357  0.89972440    -0.08250
C1207       C  0.05411774  0.54225348  0.90999682     0.62130
H1208       H  0.05160474  0.58880809  0.85818417     0.12820
H1209       H  0.44013369  0.55758398  0.91867203     0.12830
C1210       C  0.43642146  0.59918476  0.86433112     0.62360
F1211       F  0.08285077  0.55416128  0.88997804    -0.22810
F1212       F  0.04894946  0.00817621  0.90767622    -0.20140
F1213       F  0.05921903  0.54841631  0.94227486    -0.19810
F1214       F  0.43636358  0.59499994  0.83073775    -0.19870
F1215       F  0.43514136  0.63253042  0.86961637    -0.20190
F1216       F  0.40768911  0.58179841  0.88031938    -0.22860
C1217       C  0.44237331  0.70558236  0.81115703    -0.05700
C1218       C  0.47713769  0.70547552  0.80894447     0.00230
C1219       C  0.99727840  0.73522170  0.81308684    -0.08340
C1220       C  0.48178789  0.76440104  0.81924338    -0.05720
C1221       C  0.44698769  0.76453400  0.82140436     0.00210
C1222       C  0.42687713  0.73473952  0.81729905    -0.08250
C1223       C  0.38920885  0.73377420  0.81997364     0.62130
H1224       H  0.42743895  0.68241884  0.80836182     0.12820
H1225       H  0.99675108  0.78753798  0.82206472     0.12830
C1226       C  0.03494186  0.73600263  0.81061293     0.62360
F1227       F  0.37417894  0.70191721  0.81743078    -0.22810
F1228       F  0.37962916  0.75450006  0.79483113    -0.20140
F1229       F  0.37783106  0.74436675  0.85034539    -0.19810
F1230       F  0.04647808  0.72593007  0.78005845    -0.19870
F1231       F  0.04423527  0.71470281  0.83545932    -0.20190
F1232       F  0.05007896  0.76767631  0.81382984    -0.22860
C1233       C  0.15448513  0.98338322  0.96127200    -0.05700
C1234       C  0.17321278  0.51442086  0.95654747     0.00230
C1235       C  0.16305883  0.54126439  0.97442549    -0.08340
C1236       C  0.13272952  0.53636857  0.99506758    -0.05720
C1237       C  0.11223252  0.50604843  0.99746961     0.00210
C1238       C  0.12443235  0.97846535  0.98165554    -0.08250
C1239       C  0.10626712  0.94364447  0.98582002     0.62130
H1240       H  0.16330282  0.96295851  0.94797045     0.12820
H1241       H  0.12428591  0.55661394  0.50828830     0.12830
C1242       C  0.18322158  0.57520865  0.97022949     0.62360
F1243       F  0.12730181  0.91963536  0.97766484    -0.22810
F1244       F  0.08075783  0.94160255  0.96537194    -0.20140
F1245       F  0.09367803  0.93631933  0.51849809    -0.19810
F1246       F  0.18624989  0.58706581  0.93718048    -0.19870
F1247       F  0.21456421  0.57280014  0.98041247    -0.20190
F1248       F  0.16848155  0.59828143  0.48888879    -0.22860
C1249       C  0.31123545  0.54402126  0.94315101    -0.05700
C1250       C  0.29501307  0.51417868  0.93420435     0.00230
C1251       C  0.30683869  0.48340982  0.94329724    -0.08340
C1252       C  0.33429222  0.98354889  0.96196084    -0.05720
C1253       C  0.34958020  0.51314331  0.97297707     0.00210
C1254       C  0.33859506  0.54425547  0.96234844    -0.08250
C1255       C  0.35455148  0.57747743  0.97174294     0.62130
H1256       H  0.30132421  0.56714345  0.93593418     0.12820
H1257       H  0.34346005  0.95998765  0.96891274     0.12830
C1258       C  0.28954373  0.95040162  0.93473951     0.62360
F1259       F  0.33840217  0.60404199  0.96019551    -0.22810
F1260       F  0.38731081  0.58252859  0.95801760    -0.20140
F1261       F  0.35336047  0.57778273  0.50591333    -0.19810
F1262       F  0.29109226  0.94917000  0.90065664    -0.19870
F1263       F  0.25653275  0.94716741  0.94775915    -0.20190
F1264       F  0.30422091  0.92331372  0.94744696    -0.22860
C1265       C  0.14259597  0.96713439  0.65210189    -0.05700
C1266       C  0.13705021  0.95629251  0.68610682     0.00230
C1267       C  0.10354622  0.94832305  0.70045529    -0.08340
C1268       C  0.07760891  0.95283012  0.68028888    -0.05720
C1269       C  0.08371702  0.96014607  0.64594613     0.00210
C1270       C  0.11686559  0.96658382  0.63140033    -0.08250
C1271       C  0.12529487  0.97197124  0.59407155     0.62130
H1272       H  0.16762358  0.97547800  0.64126156     0.12820
H1273       H  0.05240075  0.95155701  0.69162562     0.12830
C1274       C  0.09408901  0.93481597  0.73629636     0.62360
F1275       F  0.15888386  0.97043740  0.58499179    -0.22810
F1276       F  0.11711622  0.00285779  0.58277142    -0.20140
F1277       F  0.10778999  0.94732668  0.57876338    -0.19810
F1278       F  0.09572424  0.96061605  0.75705840    -0.19870
F1279       F  0.11481770  0.91122341  0.74548052    -0.20190
F1280       F  0.06181457  0.91940726  0.74065259    -0.22860
C1281       C  0.29452624  0.93327106  0.62870625    -0.05700
C1282       C  0.31990462  0.95492834  0.63963546     0.00330
C1283       C  0.31361175  0.96873187  0.67112395    -0.08340
C1284       C  0.28189237  0.96248196  0.68795915    -0.05720
C1285       C  0.25716334  0.93952598  0.67834333     0.00210
C1286       C  0.26372916  0.92419894  0.64803831    -0.08250
C1287       C  0.23923677  0.89875927  0.63488751     0.62130
H1288       H  0.29909497  0.92263533  0.60506147     0.12820
H1289       H  0.27610818  0.97625308  0.70937023     0.12830
C1290       C  0.33962989  0.98871547  0.68908107     0.62360
F1291       F  0.25600642  0.87645644  0.61716549    -0.22810
F1292       F  0.22005715  0.91471258  0.61350312    -0.20140
F1293       F  0.21901819  0.88050980  0.66036196    -0.19810
F1294       F  0.35069420  0.51887701  0.67188580    -0.19870
F1295       F  0.36610830  0.97038156  0.69271919    -0.20190
F1296       F  0.32761883  0.99562546  0.72074726    -0.22860
C1297       C  0.21928405  0.50016892  0.78425641    -0.05700
C1298       C  0.20484806  0.96716348  0.78418431     0.00230
C1299       C  0.19802730  0.94705593  0.81430600    -0.08340
C1300       C  0.20588597  0.96082697  0.84394006    -0.05720
C1301       C  0.22043741  0.49380965  0.84407461     0.00210
C1302       C  0.22719244  0.51397583  0.81390799    -0.08250
C1303       C  0.24211058  0.54994697  0.81324174     0.62130
H1304       H  0.22454170  0.51493193  0.76074596     0.12820
H1305       H  0.20068202  0.94595844  0.86739692     0.12830
C1306       C  0.18235441  0.91137230  0.81491551     0.62360
F1307       F  0.24492031  0.56571688  0.78159455    -0.22810
F1308       F  0.27356986  0.55107081  0.82400729    -0.20140
F1309       F  0.22210852  0.56742656  0.83385998    -0.19810
F1310       F  0.20285173  0.89293293  0.79588177    -0.19870
F1311       F  0.15184073  0.91103227  0.80214398    -0.20190
F1312       F  0.17732284  0.89615316  0.84682327    -0.22860
C1313       C  0.32424249  0.62950252  0.59648158    -0.05700
C1314       C  0.34219818  0.66116185  0.58944667     0.00230
C1315       C  0.37748399  0.66284274  0.58258799    -0.08340
C1316       C  0.39351249  0.63418722  0.58877521    -0.05720
C1317       C  0.37580116  0.60269538  0.59505080     0.00210
C1318       C  0.34050012  0.59996976  0.59704697    -0.08250
C1319       C  0.32025623  0.56634736  0.59793330     0.62130
H1320       H  0.29735819  0.62794197  0.60072872     0.12820
H1321       H  0.42052305  0.63588671  0.58494412     0.12830
C1322       C  0.39947109  0.69294140  0.56590052     0.62360
F1323       F  0.28657746  0.56947682  0.59724282    -0.22810
F1324       F  0.32442173  0.54762763  0.62652881    -0.20140
F1325       F  0.33065775  0.54955688  0.57080917    -0.19810
F1326       F  0.41791427  0.70750573  0.58914337    -0.19870
F1327       F  0.38154482  0.71614856  0.55086996    -0.20190
F1328       F  0.42133376  0.68285694  0.54111262    -0.22860
C1329       C  0.38390843  0.78256766  0.59728992    -0.05700
C1330       C  0.34926899  0.78200354  0.60560821     0.00230
C1331       C  0.33673125  0.81147215  0.61658424    -0.08340
C1332       C  0.35797657  0.84139961  0.61279107    -0.05720
C1333       C  0.39207117  0.84214732  0.60195929     0.00210
C1334       C  0.40573792  0.81185766  0.59647851    -0.08250
C1335       C  0.44293450  0.81054819  0.58886016     0.62130
H1336       H  0.39389311  0.76022537  0.58975219     0.12820
H1337       H  0.34778720  0.86461031  0.61813401     0.12830
C1338       C  0.30135963  0.81245914  0.63200368     0.62360
F1339       F  0.45089689  0.77853781  0.58373885    -0.22810
F1340       F  0.45893213  0.82120939  0.61552279    -0.20140
F1341       F  0.45460601  0.83088666  0.56062839    -0.19810
F1342       F  0.28763363  0.78144747  0.64590546    -0.19870
F1343       F  0.28206314  0.82345090  0.60800115    -0.20190
F1344       F  0.30079630  0.83420252  0.65704894    -0.22860
C1345       C  0.01703225  0.66263249  0.53878247    -0.05700
C1346       C  0.03101445  0.63375319  0.52961210     0.00230
C1347       C  0.06343906  0.63672863  0.51281931    -0.08340
C1348       C  0.08116603  0.66822521  0.50639548    -0.05720
C1349       C  0.06916698  0.69683783  0.51874089     0.00210
C1350       C  0.03575103  0.69434559  0.53449608    -0.08250
C1351       C  0.01948771  0.72398718  0.54766410     0.62130
H1352       H  0.49188178  0.65983321  0.55093388     0.12820
H1353       H  0.10610568  0.67030563  0.49378944     0.12830
C1354       C  0.08138886  0.60659179  0.50540025     0.62360
F1355       F  0.49083078  0.71389149  0.56852628    -0.22810
F1356       F  0.01041773  0.74373272  0.02150079    -0.20140
F1357       F  0.04086728  0.74257859  0.56566629    -0.19810
F1358       F  0.06052988  0.58264591  0.49287373    -0.19870
F1359       F  0.09213929  0.59395120  0.53465437    -0.20190
F1360       F  0.10860323  0.61462919  0.48217309    -0.22860
C1361       C  0.08564104  0.82520619  0.55083297    -0.05700
C1362       C  0.09451994  0.81837499  0.51813246     0.00230
C1363       C  0.08413392  0.83812928  0.99172335    -0.08340
C1364       C  0.06299163  0.86304989  0.99922651    -0.05720
C1365       C  0.05248572  0.86909120  0.53227219     0.00210
C1366       C  0.06506203  0.85017871  0.55874923    -0.08250
C1367       C  0.05726534  0.85529924  0.59547513     0.62130
H1368       H  0.09384823  0.80931847  0.57042974     0.12820
H1369       H  0.05411620  0.87763367  0.97911671     0.12830
C1370       C  0.09604106  0.83324355  0.95597767     0.62360
F1371       F  0.07503703  0.83610714  0.61569348    -0.22810
F1372       F  0.52386282  0.84628213  0.60508462    -0.20140
F1373       F  0.06560615  0.88824531  0.60118485    -0.19810
F1374       F  0.08376619  0.80215663  0.94753959    -0.19870
F1375       F  0.13048864  0.83569916  0.95225889    -0.20190
F1376       F  0.08576569  0.85709636  0.93409667    -0.22860
C1377       C  0.24520159  0.74746177  0.53129939    -0.05700
C1378       C  0.24671666  0.72829387  0.56122736     0.00230
C1379       C  0.21657314  0.71607407  0.58058956    -0.08340
C1380       C  0.18600828  0.72417075  0.56963434    -0.05720
C1381       C  0.18438450  0.74372372  0.53989472     0.00210
C1382       C  0.21457268  0.75501288  0.51994537    -0.08250
C1383       C  0.21471509  0.77425760  0.48643006     0.62130
H1384       H  0.26846377  0.75687918  0.51700322     0.12820
H1385       H  0.16286715  0.71528145  0.58439667     0.12830
C1386       C  0.21666091  0.69505219  0.61305811     0.62360
F1387       F  0.24591051  0.77733962  0.46880750    -0.22810
F1388       F  0.20582652  0.80601467  0.49076602    -0.20140
F1389       F  0.19256237  0.75787001  0.96749109    -0.19810
F1390       F  0.23597782  0.71199526  0.63419250    -0.19870
F1391       F  0.22943434  0.66523208  0.60691244    -0.20190
F1392       F  0.18490422  0.68766016  0.62909259    -0.22860
C1393       C  0.60923128  0.28658120  0.51385998     0.03210
C1394       C  0.64080032  0.28190960  0.02434159    -0.12940
C1395       C  0.65058874  0.24957070  0.02955777     0.00710
C1396       C  0.62666748  0.22222346  0.02796408    -0.11470
C1397       C  0.59447796  0.22654982  0.51843896     0.03200
C1398       C  0.58733201  0.25880300  0.50893148    -0.10890
H1399       H  0.65677956  0.30329781  0.03020238     0.08800
H1400       H  0.63312461  0.19739514  0.03472862     0.06330
H1401       H  0.56364431  0.26278510  0.50012504     0.06170
C1402       C  0.82411700  0.19186957  0.09046582     0.03210
C1403       C  0.79399774  0.19436836  0.07583481    -0.12940
C1404       C  0.78003039  0.22506061  0.07365719     0.00710
C1405       C  0.79840630  0.25369413  0.08282768    -0.11470
C1406       C  0.82742212  0.25139052  0.09921750     0.03200
C1407       C  0.83819982  0.21969064  0.10522519    -0.10890
H1408       H  0.78194555  0.17294550  0.06538967     0.08800
H1409       H  0.79005127  0.27770217  0.07664540     0.06330
H1410       H  0.85978322  0.21719937  0.11875540     0.06170
C1411       C  0.66721357  0.45088580  0.20378496     0.03210
C1412       C  0.67077889  0.46056805  0.23609126    -0.12940
C1413       C  0.69915633  0.45400185  0.25177111     0.00710
C1414       C  0.72503971  0.43994573  0.23426207    -0.11470
C1415       C  0.72472302  0.43619043  0.19998479     0.03200
C1416       C  0.69477780  0.43912561  0.18602983    -0.10890
H1417       H  0.65249978  0.47426010  0.24870319     0.08800
H1418       H  0.74747340  0.43650408  0.24623958     0.06330
H1419       H  0.69362257  0.43478119  0.16037042     0.06170
C1420       C  0.76253630  0.01543635  0.42064512     0.03210
C1421       C  0.75837114  0.00934440  0.38747957    -0.12940
C1422       C  0.72631448  0.00657789  0.37667105     0.00710
C1423       C  0.69879825  0.01102048  0.39893774    -0.11470
C1424       C  0.70284000  0.01717225  0.43206257     0.03200
C1425       C  0.73471216  0.01896824  0.44278515    -0.10890
H1426       H  0.77967134  0.00493609  0.37076489     0.08800
H1427       H  0.67392836  0.00761478  0.39100966     0.06330
H1428       H  0.73775921  0.02074161  0.46891052     0.06170
C1429       C  0.50524986  0.12731988  0.27111430     0.03210
C1430       C  0.51148730  0.10893429  0.30024716    -0.12940
C1431       C  0.50486544  0.12097575  0.33144034     0.00710
C1432       C  0.49687609  0.15381943  0.33355719    -0.11470
C1433       C  0.49131800  0.17315257  0.30497387     0.03200
C1434       C  0.49432800  0.15935296  0.27388353    -0.10890
H1435       H  0.51810709  0.08359450  0.29897516     0.08800
H1436       H  0.49234241  0.16342274  0.35773916     0.06330
H1437       H  0.48630378  0.17277197  0.25259662     0.06170
C1438       C  0.92146118  0.34393873  0.35842902     0.03210
C1439       C  0.93167140  0.31163241  0.35600485    -0.12940
C1440       C  0.93271785  0.29686266  0.32545427     0.00710
C1441       C  0.92489484  0.31515989  0.29713834    -0.11470
C1442       C  0.91744315  0.34844437  0.29848012     0.03200
C1443       C  0.91460468  0.36203154  0.32937149    -0.10890
H1444       H  0.94056796  0.29871087  0.37714081     0.08800
H1445       H  0.92774470  0.30448514  0.27330264     0.06330
H1446       H  0.90974811  0.38791037  0.33042470     0.06170
O1447       O  0.52639884  0.41764053  0.01395087    -0.86410
O1448       O  0.93102258  0.46340737  0.17046440    -0.86570
O1449       O  0.53280713  0.44084706  0.12448859    -0.88240
O1450       O  0.93984582  0.38243471  0.10216907    -0.87000
O1451       O  0.89584438  0.39458558  0.07321537    -0.86590
O1452       O  0.55578410  0.49503306  0.11280827    -0.87960
O1453       O  0.95888539  0.42033079  0.15297317    -0.86440
O1454       O  0.51476779  0.39577799  0.06738512    -0.86020
Zr1455     Zr  0.98094389  0.43219968  0.09683309     2.84310
O1456       O  0.92814833  0.45061428  0.10067773    -1.08000
O1457       O  0.51731815  0.46858314  0.06039775    -1.08730
C1458       C  0.52963885  0.39580826  0.03810360     1.06700
C1459       C  0.94279639  0.43464167  0.17551968     1.06640
C1460       C  0.55550880  0.46539309  0.12642087     1.09630
C1461       C  0.91077564  0.37514690  0.09199216     1.07410
H1462       H  0.99197488  0.48501621  0.13801170     0.32960
O1463       O  0.98407648  0.48568335  0.11624122    -1.28950
H1464       H  0.95939311  0.40932830  0.03750005     0.32640
O1465       O  0.96051560  0.43166985  0.04483291    -1.30630
O1466       O  0.89933720  0.05314983  0.11437988    -0.86400
O1467       O  0.99895963  0.50635540  0.45801998    -0.87900
O1468       O  0.51559020  0.05074500  0.13128057    -0.86480
O1469       O  0.85764502  0.44928094  0.09014624    -0.86530
O1470       O  0.91174955  0.42221841  0.99679492    -0.86240
O1471       O  0.57070606  0.01925671  0.04036821    -0.86050
O1472       O  0.98445353  0.09271007  0.02841041    -0.86420
O1473       O  0.89837704  0.03311462  0.99863477    -0.85880
O1474       O  0.52826444  0.08065690  0.05771913    -0.86940
O1475       O  0.87328841  0.48042940  0.01318821    -0.86100
O1476       O  0.96154636  0.03962420  0.15439773    -0.86500
O1477       O  0.55554686  0.48733164  0.99850089    -0.86220
O1478       O  0.96580373  0.43357209  0.47383928    -0.85870
O1479       O  0.87444481  0.48091531  0.13104579    -0.86280
O1480       O  0.90986043  0.07436109  0.05997545    -0.86580
O1481       O  0.96837261  0.04917574  0.47240879    -0.87910
Zr1482     Zr  0.93090931  0.50367934  0.12015351     2.83100
Zr1483     Zr  0.99714997  0.46844548  0.00837240     2.83500
Zr1484     Zr  0.51981944  0.02263235  0.07885574     2.84090
Zr1485     Zr  0.90731620  0.45095797  0.04887656     2.83360
Zr1486     Zr  0.94693132  0.04073181  0.03024143     2.84220
O1487       O  0.94403117  0.48696970  0.01184789    -1.08490
O1488       O  0.96649015  0.04085729  0.08287872    -1.07990
C1489       C  0.89576414  0.07435986  0.08976909     1.06670
C1490       C  0.98643794  0.03413334  0.45146218     1.09290
C1491       C  0.99175627  0.05264488  0.15454171     1.06850
C1492       C  0.85260490  0.46202707  0.11862978     1.07210
C1493       C  0.93566495  0.42047300  0.47354900     1.06790
C1494       C  0.57731997  0.50424287  0.01345634     1.06340
C1495       C  0.51291375  0.10042761  0.03961569     1.06770
C1496       C  0.87541745  0.00907369  0.99658683     1.06280
H1497       H  0.51511267  0.03726873  0.01108161     0.32960
O1498       O  0.00012813  0.02252436  0.02652499    -1.29580
H1499       H  0.88832436  0.01181949  0.06880686     0.32980
O1500       O  0.91044344  0.50463328  0.06762579    -1.30970
C1501       C  0.90983170  0.41824557  0.23104834    -0.05700
C1502       C  0.93781525  0.41487121  0.20877540     0.00230
C1503       C  0.95909017  0.38976707  0.21738232    -0.08340
C1504       C  0.95078049  0.36927138  0.24666006    -0.05720
C1505       C  0.92155871  0.37097384  0.26736081     0.00210
C1506       C  0.90033879  0.39579297  0.25929870    -0.08250
C1507       C  0.86698684  0.39896133  0.27853759     0.62130
H1508       H  0.89406493  0.43740398  0.22562472     0.12820
H1509       H  0.96742185  0.35110887  0.25363573     0.12830
C1510       C  0.99073098  0.38351757  0.19637718     0.62360
F1511       F  0.84310179  0.40267063  0.25659319    -0.22810
F1512       F  0.86960819  0.42686988  0.29654302    -0.20140
F1513       F  0.85593926  0.37126177  0.29990865    -0.19810
F1514       F  0.50870467  0.41339025  0.18570050    -0.19870
F1515       F  0.98271224  0.36623025  0.16936896    -0.20190
F1516       F  0.01134796  0.36497788  0.21394061    -0.22860
C1517       C  0.90903779  0.37157702  0.44734865    -0.05700
C1518       C  0.92911430  0.40219978  0.44375984     0.00230
C1519       C  0.94486498  0.41396194  0.41181873    -0.08340
C1520       C  0.94312800  0.39301088  0.38575352    -0.05720
C1521       C  0.92380808  0.36206053  0.38921153     0.00210
C1522       C  0.90548228  0.35148346  0.42029184    -0.08250
C1523       C  0.88176815  0.31974979  0.42486259     0.62130
H1524       H  0.89672890  0.36313270  0.47168730     0.12820
H1525       H  0.95682830  0.40106106  0.36192175     0.12830
C1526       C  0.96284990  0.44887954  0.40442492     0.62360
F1527       F  0.86228922  0.31749349  0.45497103    -0.22810
F1528       F  0.89950173  0.29216224  0.42410241    -0.20140
F1529       F  0.86068917  0.31917848  0.39986723    -0.19810
F1530       F  0.99450336  0.44977248  0.41472353    -0.19870
F1531       F  0.94516460  0.47193039  0.42038022    -0.20190
F1532       F  0.96595593  0.45843828  0.37075136    -0.22860
C1533       C  0.48615687  0.07756659  0.24310759    -0.05700
C1534       C  0.50380201  0.10946781  0.23994784     0.00230
C1535       C  0.52078440  0.12147580  0.20855282    -0.08340
C1536       C  0.51727178  0.10191707  0.18106969    -0.05720
C1537       C  0.99870151  0.07046358  0.18447169     0.00210
C1538       C  0.98472067  0.05722400  0.21653556    -0.08250
C1539       C  0.96888483  0.02140260  0.22339544     0.62130
H1540       H  0.47329548  0.06832176  0.26701011     0.12820
H1541       H  0.02831813  0.11147153  0.15655183     0.12830
C1542       C  0.54287374  0.15426850  0.20382265     0.62360
F1543       F  0.46751069  0.51096986  0.25677575    -0.22810
F1544       F  0.48744890  0.49999020  0.20595867    -0.20140
F1545       F  0.93672011  0.51886138  0.21433394    -0.19810
F1546       F  0.56332540  0.15680540  0.22925499    -0.19870
F1547       F  0.52351900  0.18066993  0.20338513    -0.20190
F1548       F  0.56307073  0.15674513  0.17413102    -0.22860
C1549       C  0.52743455  0.08194976  0.37185788    -0.05700
C1550       C  0.49999382  0.09708036  0.36122171     0.00230
C1551       C  0.96765805  0.08684723  0.37709079    -0.08340
C1552       C  0.96446332  0.06433634  0.40525604    -0.05720
C1553       C  0.99209664  0.05104110  0.41756992     0.00210
C1554       C  0.52399027  0.05854183  0.39972691    -0.08250
C1555       C  0.55411672  0.04225175  0.40999904     0.62130
H1556       H  0.55160369  0.08880579  0.35818609     0.12820
H1557       H  0.94013370  0.05758390  0.41867153     0.12830
C1558       C  0.93642142  0.09918483  0.36433087     0.62360
F1559       F  0.58284982  0.05415997  0.38998052    -0.22810
F1560       F  0.54894915  0.50817608  0.40767616    -0.20140
F1561       F  0.55921764  0.04841415  0.44227720    -0.19810
F1562       F  0.93636358  0.09500006  0.33073750    -0.19870
F1563       F  0.93514116  0.13253045  0.36961622    -0.20190
F1564       F  0.90768911  0.08179833  0.38031909    -0.22860
C1565       C  0.94237301  0.20558269  0.31115690    -0.05700
C1566       C  0.97713739  0.20547583  0.30894427     0.00230
C1567       C  0.49727856  0.23522053  0.31308756    -0.08340
C1568       C  0.98178767  0.26440144  0.31924283    -0.05720
C1569       C  0.94698746  0.26453445  0.32140385     0.00210
C1570       C  0.92687687  0.23473992  0.31729880    -0.08250
C1571       C  0.88920859  0.23377462  0.31997356     0.62130
H1572       H  0.92743861  0.18241916  0.30836186     0.12820
H1573       H  0.49675153  0.28753697  0.32206492     0.12830
C1574       C  0.53494200  0.23600131  0.31061348     0.62360
F1575       F  0.87417863  0.20191763  0.31743079    -0.22810
F1576       F  0.87962881  0.25450048  0.29483109    -0.20140
F1577       F  0.87783095  0.24436722  0.35034534    -0.19810
F1578       F  0.54647801  0.22592851  0.28005904    -0.19870
F1579       F  0.54423543  0.21470159  0.33545994    -0.20190
F1580       F  0.55007927  0.26767499  0.31383011    -0.22860
C1581       C  0.65448478  0.48338323  0.46127188    -0.05700
C1582       C  0.67321120  0.01441777  0.45654849     0.00230
C1583       C  0.66305830  0.04126142  0.47442701    -0.08340
C1584       C  0.63272800  0.03636689  0.49506825    -0.05720
C1585       C  0.61222924  0.00604759  0.49746941     0.00210
C1586       C  0.62443203  0.47846536  0.48165550    -0.08250
C1587       C  0.60626688  0.44364446  0.48582006     0.62130
H1588       H  0.66330243  0.46295851  0.44797030     0.12820
H1589       H  0.62428645  0.05661408  0.00828773     0.12830
C1590       C  0.68322331  0.07520461  0.47023187     0.62360
F1591       F  0.62730160  0.41963538  0.47766480    -0.22810
F1592       F  0.58075750  0.44160249  0.46537210    -0.20140
F1593       F  0.59367822  0.43631894  0.01849791    -0.19810
F1594       F  0.68625077  0.08706345  0.43718335    -0.19870
F1595       F  0.71456627  0.07279365  0.48041308    -0.20190
F1596       F  0.66848242  0.09828130  0.98888826    -0.22860
C1597       C  0.81123449  0.04401974  0.44315103    -0.05700
C1598       C  0.79501247  0.01417681  0.43420471     0.00230
C1599       C  0.80683888  0.98340833  0.44329740    -0.08340
C1600       C  0.83429178  0.48354867  0.46196078    -0.05720
C1601       C  0.84958023  0.01314277  0.47297675     0.00210
C1602       C  0.83859447  0.04425460  0.46234807    -0.08250
C1603       C  0.85455068  0.07747685  0.47174200     0.62130
H1604       H  0.80132273  0.06714166  0.43593427     0.12820
H1605       H  0.84345961  0.45998742  0.46891266     0.12830
C1606       C  0.78954342  0.45040147  0.43473940     0.62360
F1607       F  0.83840105  0.10404107  0.46019433    -0.22810
F1608       F  0.88730993  0.08252810  0.45801641    -0.20140
F1609       F  0.85336068  0.07778269  0.00591318    -0.19810
F1610       F  0.79109209  0.44916986  0.40065654    -0.19870
F1611       F  0.75653243  0.44716726  0.44775897    -0.20190
F1612       F  0.80422057  0.42331357  0.44744692    -0.22860
C1613       C  0.64259633  0.46713431  0.15210151    -0.05700
C1614       C  0.63705080  0.45629215  0.18610638     0.00230
C1615       C  0.60354687  0.44832229  0.20045495    -0.08340
C1616       C  0.57760941  0.45282928  0.18028873    -0.05720
C1617       C  0.58371733  0.46014561  0.14594604     0.00210
C1618       C  0.61686583  0.46658376  0.13140010    -0.08250
C1619       C  0.62529491  0.47197171  0.09407132     0.62130
H1620       H  0.66762384  0.47547824  0.14126111     0.12820
H1621       H  0.55240126  0.45155580  0.19162559     0.12830
C1622       C  0.59408986  0.43481486  0.23629593     0.62360
F1623       F  0.65888386  0.47043779  0.08499132    -0.22810
F1624       F  0.61711638  0.50285849  0.08277172    -0.20140
F1625       F  0.60778983  0.44732754  0.07876286    -0.19810
F1626       F  0.59572469  0.46061478  0.25705818    -0.19870
F1627       F  0.61481894  0.41122260  0.24547986    -0.20190
F1628       F  0.56181561  0.41940566  0.24065208    -0.22860
C1629       C  0.79452739  0.43327214  0.12870496    -0.05700
C1630       C  0.81990592  0.45492929  0.13963416     0.00330
C1631       C  0.81361309  0.46873249  0.17112285    -0.08340
C1632       C  0.78189364  0.46248284  0.18795802    -0.05720
C1633       C  0.75716450  0.43952700  0.17834221     0.00210
C1634       C  0.76373030  0.42419997  0.14803716    -0.08250
C1635       C  0.73923795  0.39876010  0.13488655     0.62130
H1636       H  0.79909604  0.42263651  0.10506012     0.12820
H1637       H  0.77610955  0.47625397  0.20936912     0.12830
C1638       C  0.83963144  0.48871522  0.18908037     0.62360
F1639       F  0.75600767  0.37645729  0.11716456    -0.22810
F1640       F  0.72005812  0.41471318  0.11350222    -0.20140
F1641       F  0.71901955  0.38051061  0.16036113    -0.19810
F1642       F  0.85069432  0.01887709  0.17188557    -0.19870
F1643       F  0.86610966  0.47038082  0.19271764    -0.20190
F1644       F  0.82762065  0.49562429  0.22074696    -0.22860
C1645       C  0.71928381  0.00016835  0.28425665    -0.05700
C1646       C  0.70484871  0.46716367  0.28418376     0.00230
C1647       C  0.69802770  0.44705603  0.31430539    -0.08340
C1648       C  0.70588608  0.46082699  0.34393960    -0.05720
C1649       C  0.72043692  0.99380842  0.34407486     0.00210
C1650       C  0.72719198  0.01397496  0.31390844    -0.08250
C1651       C  0.74210987  0.04994615  0.31324260     0.62130
H1652       H  0.72454146  0.01493162  0.26074635     0.12820
H1653       H  0.70068197  0.44595838  0.36739640     0.12830
C1654       C  0.68235488  0.41137240  0.31491470     0.62360
F1655       F  0.74491943  0.06571645  0.28159559    -0.22810
F1656       F  0.77356920  0.05107005  0.32400806    -0.20140
F1657       F  0.72210772  0.06742533  0.33386116    -0.19810
F1658       F  0.70285227  0.39293317  0.29588090    -0.19870
F1659       F  0.65184124  0.41103241  0.30214310    -0.20190
F1660       F  0.67732324  0.39615311  0.34682239    -0.22860
C1661       C  0.82424329  0.12950328  0.09648170    -0.05700
C1662       C  0.84219913  0.16116253  0.08944658     0.00230
C1663       C  0.87748490  0.16284312  0.08258769    -0.08340
C1664       C  0.89351325  0.13418747  0.08877490    -0.05720
C1665       C  0.87580177  0.10269570  0.09505059     0.00210
C1666       C  0.84050071  0.09997037  0.09704700    -0.08250
C1667       C  0.82025653  0.06634811  0.09793346     0.62130
H1668       H  0.79735900  0.12794291  0.10072901     0.12820
H1669       H  0.92052379  0.13588679  0.08494370     0.12830
C1670       C  0.89947206  0.19294158  0.06589989     0.62360
F1671       F  0.78657780  0.06947787  0.09724304    -0.22810
F1672       F  0.82442194  0.04762838  0.12652899    -0.20140
F1673       F  0.83065781  0.04955750  0.07080935    -0.19810
F1674       F  0.91791506  0.20750636  0.08914261    -0.19870
F1675       F  0.88154580  0.21614843  0.05086883    -0.20190
F1676       F  0.92133487  0.18285679  0.04111230    -0.22860
C1677       C  0.88391021  0.28256890  0.09728757    -0.05700
C1678       C  0.84927088  0.28200474  0.10560669     0.00230
C1679       C  0.83673346  0.31147329  0.11658326    -0.08340
C1680       C  0.85797889  0.34140075  0.11279004    -0.05720
C1681       C  0.89207337  0.34214855  0.10195753     0.00210
C1682       C  0.90573984  0.31185887  0.09647602    -0.08250
C1683       C  0.94293630  0.31054942  0.08885656     0.62130
H1684       H  0.89389463  0.26022665  0.08974932     0.12820
H1685       H  0.84778969  0.36461142  0.11813346     0.12830
C1686       C  0.80136202  0.31246022  0.13200331     0.62360
F1687       F  0.95089846  0.27853909  0.08373462    -0.22810
F1688       F  0.95893485  0.32121035  0.11551872    -0.20140
F1689       F  0.95460701  0.33088814  0.06062475    -0.19810
F1690       F  0.78763638  0.28144856  0.14590550    -0.19870
F1691       F  0.78206497  0.32345164  0.10800115    -0.20190
F1692       F  0.80079903  0.33420380  0.15704839    -0.22860
C1693       C  0.51703269  0.16263295  0.03878239    -0.05700
C1694       C  0.53101527  0.13375377  0.02961255     0.00230
C1695       C  0.56344019  0.13672914  0.01282043    -0.08340
C1696       C  0.58116696  0.16822571  0.00639654    -0.05720
C1697       C  0.56916757  0.19683827  0.01874165     0.00210
C1698       C  0.53575138  0.19434600  0.03449624    -0.08250
C1699       C  0.51948759  0.22398746  0.04766380     0.62130
H1700       H  0.99188167  0.15983312  0.05093400     0.12820
H1701       H  0.60610671  0.17030624  0.99379074     0.12830
C1702       C  0.58139028  0.10659241  0.00540151     0.62360
F1703       F  0.99083021  0.21389133  0.06852639    -0.22810
F1704       F  0.51041486  0.24372970  0.52149911    -0.20140
F1705       F  0.54086672  0.24257914  0.06566620    -0.19810
F1706       F  0.56053187  0.08264704  0.99287369    -0.19870
F1707       F  0.59213972  0.09395103  0.03465582    -0.20190
F1708       F  0.60860529  0.11463013  0.98217523    -0.22860
C1709       C  0.58564156  0.32520654  0.05083318    -0.05700
C1710       C  0.59452038  0.31837528  0.01813268     0.00230
C1711       C  0.58413357  0.33812993  0.49172398    -0.08340
C1712       C  0.56299121  0.36305045  0.49922695    -0.05720
C1713       C  0.55248589  0.36909117  0.03227237     0.00210
C1714       C  0.56506239  0.35017891  0.05874942    -0.08250
C1715       C  0.55726571  0.35529956  0.09547529     0.62130
H1716       H  0.59384889  0.30931896  0.07042997     0.12820
H1717       H  0.55411552  0.37763388  0.47911706     0.12830
C1718       C  0.59604030  0.33324356  0.45597836     0.62360
F1719       F  0.57503755  0.33610766  0.11569367    -0.22810
F1720       F  0.02386631  0.34628703  0.10508464    -0.20140
F1721       F  0.56560636  0.38824569  0.10118486    -0.19810
F1722       F  0.58376548  0.30215632  0.44754108    -0.19870
F1723       F  0.63048788  0.33569941  0.45225914    -0.20190
F1724       F  0.58576447  0.35709583  0.43409706    -0.22860
C1725       C  0.74520219  0.24746255  0.03129969    -0.05700
C1726       C  0.74671746  0.22829475  0.06122769     0.00230
C1727       C  0.71657401  0.21607491  0.08059001    -0.08340
C1728       C  0.68600906  0.22417150  0.06963491    -0.05720
C1729       C  0.68438510  0.24372435  0.03989526     0.00210
C1730       C  0.71457319  0.25501350  0.01994576    -0.08250
C1731       C  0.71471543  0.27425797  0.98643034     0.62130
H1732       H  0.76846430  0.25687996  0.01700339     0.12820
H1733       H  0.66286800  0.21528219  0.08439735     0.12830
C1734       C  0.71666192  0.19505302  0.11305853     0.62360
F1735       F  0.74591076  0.27733984  0.96880761    -0.22810
F1736       F  0.70582692  0.30601510  0.99076612    -0.20140
F1737       F  0.69256023  0.25787029  0.46749237    -0.19810
F1738       F  0.73597900  0.21199605  0.13419281    -0.19870
F1739       F  0.72943524  0.16523288  0.10691277    -0.20190
F1740       F  0.68490530  0.18766104  0.12909318    -0.22860
C1741       C  0.60923222  0.28658068  0.01385862     0.03210
C1742       C  0.64079963  0.28191033  0.52434232    -0.12940
C1743       C  0.65058770  0.24957149  0.52955959     0.00710
C1744       C  0.62666597  0.22222430  0.52796733    -0.11470
C1745       C  0.59447969  0.22654939  0.01843562     0.03200
C1746       C  0.58733371  0.25880259  0.00892849    -0.10890
H1747       H  0.65677928  0.30329873  0.53020201     0.08800
H1748       H  0.63312315  0.19739615  0.53473244     0.06330
H1749       H  0.56364621  0.26278463  0.00012156     0.06170
C1750       C  0.82411678  0.19186978  0.59046537     0.03210
C1751       C  0.79399750  0.19436866  0.57583439    -0.12940
C1752       C  0.78003012  0.22506091  0.57365694     0.00710
C1753       C  0.79840607  0.25369440  0.58282748    -0.11470
C1754       C  0.82742189  0.25139071  0.59921726     0.03200
C1755       C  0.83819958  0.21969080  0.60522486    -0.10890
H1756       H  0.78194525  0.17294585  0.56538922     0.08800
H1757       H  0.79005101  0.27770244  0.57664532     0.06330
H1758       H  0.85978292  0.21719948  0.61875512     0.06170
C1759       C  0.66721344  0.45088585  0.70378502     0.03210
C1760       C  0.67077876  0.46056808  0.73609133    -0.12940
C1761       C  0.69915621  0.45400189  0.75177117     0.00710
C1762       C  0.72503958  0.43994575  0.73426212    -0.11470
C1763       C  0.72472289  0.43619048  0.69998485     0.03200
C1764       C  0.69477767  0.43912567  0.68602988    -0.10890
H1765       H  0.65249965  0.47426014  0.74870325     0.08800
H1766       H  0.74747326  0.43650410  0.74623964     0.06330
H1767       H  0.69362244  0.43478127  0.66037047     0.06170
C1768       C  0.76253731  0.01543882  0.92064443     0.03210
C1769       C  0.75837217  0.00934587  0.88747910    -0.12940
C1770       C  0.72631561  0.00657969  0.87667036     0.00710
C1771       C  0.69879946  0.01102321  0.89893666    -0.11470
C1772       C  0.70284132  0.01717597  0.93206120     0.03200
C1773       C  0.73471333  0.01897239  0.94278395    -0.10890
H1774       H  0.77967229  0.00493663  0.87076479     0.08800
H1775       H  0.67392955  0.00761731  0.89100865     0.06330
H1776       H  0.73776024  0.02074698  0.96890923     0.06170
C1777       C  0.50525003  0.12732125  0.77111309     0.03210
C1778       C  0.51148805  0.10893591  0.80024572    -0.12940
C1779       C  0.50486645  0.12097756  0.83143872     0.00710
C1780       C  0.49687685  0.15382103  0.83355571    -0.11470
C1781       C  0.49131833  0.17315395  0.80497249     0.03200
C1782       C  0.49432800  0.15935423  0.77388223    -0.10890
H1783       H  0.51810778  0.08359608  0.79897375     0.08800
H1784       H  0.49234320  0.16342428  0.85773772     0.06330
H1785       H  0.48630334  0.17277298  0.75259539     0.06170
C1786       C  0.92146116  0.34393865  0.85842900     0.03210
C1787       C  0.93167138  0.31163233  0.85600481    -0.12940
C1788       C  0.93271781  0.29686258  0.82545423     0.00710
C1789       C  0.92489478  0.31515981  0.79713831    -0.11470
C1790       C  0.91744307  0.34844429  0.79848011     0.03200
C1791       C  0.91460462  0.36203145  0.82937148    -0.10890
H1792       H  0.94056795  0.29871079  0.87714076     0.08800
H1793       H  0.92774464  0.30448508  0.77330260     0.06330
H1794       H  0.90974804  0.38791028  0.83042470     0.06170
O1795       O  0.52639854  0.41764078  0.51395096    -0.86410
O1796       O  0.93102248  0.46340741  0.67046453    -0.86570
O1797       O  0.53280689  0.44084723  0.62448873    -0.88240
O1798       O  0.93984568  0.38243476  0.60216923    -0.87000
O1799       O  0.89584423  0.39458561  0.57321552    -0.86590
O1800       O  0.55578399  0.49503316  0.61280837    -0.87960
O1801       O  0.95888527  0.42033082  0.65297329    -0.86440
O1802       O  0.51476737  0.39577831  0.56738521    -0.86020
Zr1803     Zr  0.98094379  0.43219969  0.59683323     2.84310
O1804       O  0.92814828  0.45061438  0.60067778    -1.08000
O1805       O  0.51731797  0.46858316  0.56039781    -1.08730
C1806       C  0.52963850  0.39580862  0.53810375     1.06700
C1807       C  0.94279628  0.43464171  0.67551979     1.06640
C1808       C  0.55550864  0.46539320  0.62642097     1.09630
C1809       C  0.91077550  0.37514696  0.59199232     1.07410
H1810       H  0.99197473  0.48501617  0.63801202     0.32960
O1811       O  0.98407634  0.48568331  0.61624155    -1.28950
H1812       H  0.95939287  0.40932809  0.53750027     0.32640
O1813       O  0.96051537  0.43166963  0.54483310    -1.30630
O1814       O  0.89933699  0.05314998  0.61437945    -0.86400
O1815       O  0.99895971  0.50635544  0.95801971    -0.87900
O1816       O  0.51558867  0.05074227  0.63128424    -0.86480
O1817       O  0.85764489  0.44928098  0.59014637    -0.86530
O1818       O  0.91174936  0.42221840  0.49679500    -0.86240
O1819       O  0.57070158  0.01925536  0.54036930    -0.86050
O1820       O  0.98445367  0.09271048  0.52841017    -0.86420
O1821       O  0.89837703  0.03311477  0.49863433    -0.85880
O1822       O  0.52826544  0.08065056  0.55771742    -0.86940
O1823       O  0.87328822  0.48042935  0.51318829    -0.86100
O1824       O  0.96154632  0.03962431  0.65439755    -0.86500
O1825       O  0.55554659  0.48733167  0.49850090    -0.86220
O1826       O  0.96580389  0.43357225  0.97383914    -0.85870
O1827       O  0.87444471  0.48091534  0.63104593    -0.86280
O1828       O  0.90986044  0.07436133  0.55997503    -0.86580
O1829       O  0.96837265  0.04917557  0.97240926    -0.87910
Zr1830     Zr  0.93090919  0.50367938  0.62015367     2.83100
Zr1831     Zr  0.99714969  0.46844523  0.50837261     2.83500
Zr1832     Zr  0.51981652  0.02262728  0.57886221     2.84090
Zr1833     Zr  0.90731603  0.45095796  0.54887667     2.83360
Zr1834     Zr  0.94693156  0.04073218  0.53024095     2.84220
O1835       O  0.94403090  0.48696964  0.51184788    -1.08490
O1836       O  0.96649012  0.04085741  0.58287831    -1.07990
C1837       C  0.89576396  0.07436000  0.58976863     1.06670
C1838       C  0.98643796  0.03413320  0.95146258     1.09290
C1839       C  0.99175623  0.05264500  0.65454150     1.06850
C1840       C  0.85260479  0.46202711  0.61862991     1.07210
C1841       C  0.93566513  0.42047305  0.97354891     1.06790
C1842       C  0.57731973  0.50424286  0.51345637     1.06340
C1843       C  0.51291511  0.10042223  0.53961426     1.06770
C1844       C  0.87541745  0.00907373  0.49658652     1.06280
H1845       H  0.51510210  0.03725753  0.51109353     0.32960
O1846       O  0.00012814  0.02252472  0.52652467    -1.29580
H1847       H  0.88832456  0.01181977  0.56880646     0.32980
O1848       O  0.91044307  0.50463325  0.56762603    -1.30970
C1849       C  0.90983156  0.41824552  0.73104840    -0.05700
C1850       C  0.93781515  0.41487124  0.70877549     0.00230
C1851       C  0.95909012  0.38976715  0.71738240    -0.08340
C1852       C  0.95078042  0.36927139  0.74666010    -0.05720
C1853       C  0.92155861  0.37097377  0.76736082     0.00210
C1854       C  0.90033867  0.39579288  0.75929873    -0.08250
C1855       C  0.86698670  0.39896119  0.77853762     0.62130
H1856       H  0.89406474  0.43740389  0.72562476     0.12820
H1857       H  0.96742181  0.35110889  0.75363575     0.12830
C1858       C  0.99073100  0.38351777  0.69637731     0.62360
F1859       F  0.84310164  0.40267046  0.75659321    -0.22810
F1860       F  0.86960801  0.42686974  0.79654305    -0.20140
F1861       F  0.85593916  0.37126162  0.79990867    -0.19810
F1862       F  0.50870451  0.41339029  0.68570056    -0.19870
F1863       F  0.98271238  0.36623041  0.66936909    -0.20190
F1864       F  0.01134804  0.36497819  0.71394079    -0.22860
C1865       C  0.90903790  0.37157700  0.94734862    -0.05700
C1866       C  0.92911447  0.40219976  0.94375977     0.00230
C1867       C  0.94486510  0.41396188  0.91181864    -0.08340
C1868       C  0.94312807  0.39301080  0.88575345    -0.05720
C1869       C  0.92380812  0.36206046  0.88921149     0.00210
C1870       C  0.90548234  0.35148343  0.92029182    -0.08250
C1871       C  0.88176818  0.31974977  0.92486260     0.62130
H1872       H  0.89672901  0.36313272  0.97168728     0.12820
H1873       H  0.95682833  0.40106095  0.86192166     0.12830
C1874       C  0.96285000  0.44887948  0.90442478     0.62360
F1875       F  0.86228929  0.31749347  0.95497105    -0.22810
F1876       F  0.89950174  0.29216220  0.92410239    -0.20140
F1877       F  0.86068917  0.31917847  0.89986726    -0.19810
F1878       F  0.99450347  0.44977243  0.91472339    -0.19870
F1879       F  0.94516470  0.47193034  0.92038005    -0.20190
F1880       F  0.96595603  0.45843817  0.87075122    -0.22860
C1881       C  0.48615518  0.07756789  0.74310798    -0.05700
C1882       C  0.50380125  0.10946872  0.73994728     0.00230
C1883       C  0.52078408  0.12147562  0.70855221    -0.08340
C1884       C  0.51727086  0.10191627  0.68106978    -0.05720
C1885       C  0.99870151  0.07046358  0.68447158     0.00210
C1886       C  0.98472067  0.05722392  0.71653543    -0.08250
C1887       C  0.96888485  0.02140251  0.72339526     0.62130
H1888       H  0.47329370  0.06832384  0.76701070     0.12820
H1889       H  0.02831811  0.11147162  0.65655185     0.12830
C1890       C  0.54287448  0.15426766  0.70382143     0.62360
F1891       F  0.46751057  0.51096985  0.75677569    -0.22810
F1892       F  0.48744881  0.49999025  0.70595860    -0.20140
F1893       F  0.93672006  0.51886148  0.71433406    -0.19810
F1894       F  0.56332732  0.15680342  0.72925288    -0.19870
F1895       F  0.52352072  0.18066986  0.70338516    -0.20190
F1896       F  0.56307025  0.15674405  0.67412904    -0.22860
C1897       C  0.52743581  0.08195193  0.87185576    -0.05700
C1898       C  0.49999490  0.09708236  0.86121975     0.00230
C1899       C  0.96765785  0.08684705  0.87709105    -0.08340
C1900       C  0.96446319  0.06433620  0.90525638    -0.05720
C1901       C  0.99209655  0.05104098  0.91757024     0.00210
C1902       C  0.52399141  0.05854371  0.89972431    -0.08250
C1903       C  0.55411789  0.04225371  0.90999702     0.62130
H1904       H  0.55160504  0.08880832  0.85818426     0.12820
H1905       H  0.94013360  0.05758379  0.91867193     0.12830
C1906       C  0.93642120  0.09918466  0.86433115     0.62360
F1907       F  0.58285101  0.05416153  0.88997842    -0.22810
F1908       F  0.54894935  0.50817593  0.90767635    -0.20140
F1909       F  0.55921894  0.04841657  0.94227511    -0.19810
F1910       F  0.93636331  0.09499986  0.83073778    -0.19870
F1911       F  0.93514098  0.13253029  0.86961645    -0.20190
F1912       F  0.90768891  0.08179819  0.88031942    -0.22860
C1913       C  0.94237289  0.20558259  0.81115687    -0.05700
C1914       C  0.97713726  0.20547568  0.80894431     0.00230
C1915       C  0.49727850  0.23522162  0.81308687    -0.08340
C1916       C  0.98178759  0.26440130  0.81924285    -0.05720
C1917       C  0.94698739  0.26453435  0.82140380     0.00210
C1918       C  0.92687677  0.23473985  0.81729873    -0.08250
C1919       C  0.88920850  0.23377459  0.81997341     0.62130
H1920       H  0.92743847  0.18241907  0.80836181     0.12820
H1921       H  0.49675110  0.28753785  0.82206487     0.12830
C1922       C  0.53494196  0.23600260  0.81061291     0.62360
F1923       F  0.87417852  0.20191761  0.81743064    -0.22810
F1924       F  0.87962879  0.25450044  0.79483091    -0.20140
F1925       F  0.87783082  0.24436722  0.85034517    -0.19810
F1926       F  0.54647818  0.22593009  0.78005841    -0.19870
F1927       F  0.54423545  0.21470279  0.83545926    -0.20190
F1928       F  0.55007902  0.26767630  0.81382983    -0.22860
C1929       C  0.65448496  0.48338330  0.96127188    -0.05700
C1930       C  0.67321287  0.01442079  0.95654710     0.00230
C1931       C  0.66305913  0.04126438  0.97442518    -0.08340
C1932       C  0.63272991  0.03636866  0.99506735    -0.05720
C1933       C  0.61223298  0.00604851  0.99746953     0.00210
C1934       C  0.62443222  0.47846542  0.98165549    -0.08250
C1935       C  0.60626705  0.44364451  0.98582004     0.62130
H1936       H  0.66330262  0.46295859  0.94797030     0.12820
H1937       H  0.62428533  0.05661257  0.50828879     0.12830
C1938       C  0.68322201  0.07520855  0.97022917     0.62360
F1939       F  0.62730178  0.41963543  0.97766481    -0.22810
F1940       F  0.58075771  0.44160254  0.96537203    -0.20140
F1941       F  0.59367811  0.43631889  0.51849794    -0.19810
F1942       F  0.68625012  0.08706581  0.93718020    -0.19870
F1943       F  0.71456469  0.07279985  0.98041192    -0.20190
F1944       F  0.66848628  0.09827728  0.48889287    -0.22860
C1945       C  0.81123556  0.04402108  0.94315100    -0.05700
C1946       C  0.79501312  0.01417846  0.93420450     0.00230
C1947       C  0.80683868  0.98340961  0.94329753    -0.08340
C1948       C  0.83429191  0.48354872  0.96196073    -0.05720
C1949       C  0.84958032  0.01314320  0.97297711     0.00210
C1950       C  0.83859520  0.04425534  0.96234840    -0.08250
C1951       C  0.85455164  0.07747733  0.97174277     0.62130
H1952       H  0.80132435  0.06714326  0.93593408     0.12820
H1953       H  0.84345973  0.45998747  0.96891260     0.12830
C1954       C  0.78954349  0.45040155  0.93473939     0.62360
F1955       F  0.83840237  0.10404187  0.96019524    -0.22810
F1956       F  0.88731098  0.08252842  0.95801743    -0.20140
F1957       F  0.85335999  0.07778259  0.50591236    -0.19810
F1958       F  0.79109212  0.44916994  0.90065653    -0.19870
F1959       F  0.75653250  0.44716737  0.94775898    -0.20190
F1960       F  0.80422063  0.42331363  0.94744689    -0.22860
C1961       C  0.64259620  0.46713441  0.65210157    -0.05700
C1962       C  0.63705067  0.45629221  0.68610643     0.00230
C1963       C  0.60354675  0.44832233  0.70045500    -0.08340
C1964       C  0.57760928  0.45282933  0.68028878    -0.05720
C1965       C  0.58371719  0.46014568  0.64594610     0.00210
C1966       C  0.61686570  0.46658388  0.63140016    -0.08250
C1967       C  0.62529480  0.47197192  0.59407139     0.62130
H1968       H  0.66762371  0.47547835  0.64126118     0.12820
H1969       H  0.55240113  0.45155583  0.69162565     0.12830
C1970       C  0.59408973  0.43481487  0.73629597     0.62360
F1971       F  0.65888374  0.47043795  0.58499139    -0.22810
F1972       F  0.61711632  0.50285874  0.58277185    -0.20140
F1973       F  0.60778969  0.44732783  0.57876285    -0.19810
F1974       F  0.59572456  0.46061476  0.75705824    -0.19870
F1975       F  0.61481881  0.41122260  0.74547987    -0.20190
F1976       F  0.56181548  0.41940566  0.74065210    -0.22860
C1977       C  0.79452730  0.43327220  0.62870505    -0.05700
C1978       C  0.81990582  0.45492935  0.63963427     0.00330
C1979       C  0.81361298  0.46873255  0.67112296    -0.08340
C1980       C  0.78189352  0.46248289  0.68795811    -0.05720
C1981       C  0.75716438  0.43952706  0.67834227     0.00210
C1982       C  0.76373020  0.42420004  0.64803722    -0.08250
C1983       C  0.73923785  0.39876020  0.63488658     0.62130
H1984       H  0.79909596  0.42263657  0.60506022     0.12820
H1985       H  0.77610942  0.47625402  0.70936921     0.12830
C1986       C  0.83963132  0.48871529  0.68908048     0.62360
F1987       F  0.75600756  0.37645743  0.61716453    -0.22810
F1988       F  0.72005801  0.41471333  0.61350229    -0.20140
F1989       F  0.71901946  0.38051067  0.66036114    -0.19810
F1990       F  0.85069357  0.01887829  0.67188415    -0.19870
F1991       F  0.86610954  0.47038092  0.69271778    -0.20190
F1992       F  0.82762051  0.49562438  0.72074705    -0.22860
C1993       C  0.71928510  0.00016902  0.78425614    -0.05700
C1994       C  0.70484862  0.46716372  0.78418381     0.00230
C1995       C  0.69802765  0.44705610  0.81430545    -0.08340
C1996       C  0.70588608  0.46082706  0.84393963    -0.05720
C1997       C  0.72043797  0.99380977  0.84407439     0.00210
C1998       C  0.72719347  0.01397587  0.81390774    -0.08250
C1999       C  0.74211212  0.04994683  0.81324149     0.62130
H2000       H  0.72454303  0.01493197  0.76074567     0.12820
H2001       H  0.70068200  0.44595846  0.86739644     0.12830
C2002       C  0.68235481  0.41137247  0.81491479     0.62360
F2003       F  0.74492218  0.06571672  0.78159426    -0.22810
F2004       F  0.77357133  0.05107019  0.82400716    -0.20140
F2005       F  0.72211031  0.06742677  0.83385961    -0.19810
F2006       F  0.70285219  0.39293322  0.79588098    -0.19870
F2007       F  0.65184116  0.41103247  0.80214321    -0.20190
F2008       F  0.67732320  0.39615319  0.84682249    -0.22860
C2009       C  0.82424299  0.12950343  0.59648073    -0.05700
C2010       C  0.84219890  0.16116271  0.58944611     0.00230
C2011       C  0.87748472  0.16284327  0.58258769    -0.08340
C2012       C  0.89351297  0.13418756  0.58877499    -0.05720
C2013       C  0.87580145  0.10269577  0.59505013     0.00210
C2014       C  0.84050039  0.09997049  0.59704596    -0.08250
C2015       C  0.82025619  0.06634831  0.59793170     0.62130
H2016       H  0.79735869  0.12794305  0.60072770     0.12820
H2017       H  0.92052353  0.13588689  0.58494420     0.12830
C2018       C  0.89947206  0.19294173  0.56590017     0.62360
F2019       F  0.78657757  0.06947820  0.59724053    -0.22810
F2020       F  0.82442088  0.04762824  0.62652723    -0.20140
F2021       F  0.83065805  0.04955795  0.57080761    -0.19810
F2022       F  0.91791475  0.20750646  0.58914315    -0.19870
F2023       F  0.88154600  0.21614860  0.55086886    -0.20190
F2024       F  0.92133516  0.18285695  0.54111282    -0.22860
C2025       C  0.88391000  0.28256902  0.59728750    -0.05700
C2026       C  0.84927067  0.28200488  0.60560657     0.00230
C2027       C  0.83673327  0.31147340  0.61658327    -0.08340
C2028       C  0.85797873  0.34140083  0.61279017    -0.05720
C2029       C  0.89207321  0.34214862  0.60195768     0.00210
C2030       C  0.90573966  0.31185895  0.59647609    -0.08250
C2031       C  0.94293613  0.31054947  0.58885669     0.62130
H2032       H  0.89389441  0.26022679  0.58974917     0.12820
H2033       H  0.84778955  0.36461150  0.61813365     0.12830
C2034       C  0.80136184  0.31246029  0.63200335     0.62360
F2035       F  0.95089826  0.27853913  0.58373474    -0.22810
F2036       F  0.95893464  0.32121036  0.61551889    -0.20140
F2037       F  0.95460690  0.33088820  0.56062491    -0.19810
F2038       F  0.78763623  0.28144861  0.64590549    -0.19870
F2039       F  0.78206476  0.32345176  0.60800123    -0.20190
F2040       F  0.80079885  0.33420383  0.65704847    -0.22860
C2041       C  0.51703218  0.16262943  0.53878204    -0.05700
C2042       C  0.53101661  0.13375035  0.52961314     0.00230
C2043       C  0.56344313  0.13672817  0.51282405    -0.08340
C2044       C  0.58116768  0.16822598  0.50639937    -0.05720
C2045       C  0.56916652  0.19683781  0.51874398     0.00210
C2046       C  0.53574969  0.19434370  0.53449706    -0.08250
C2047       C  0.51948408  0.22398471  0.54766359     0.62130
H2048       H  0.99188162  0.15983333  0.55093352     0.12820
H2049       H  0.60610755  0.17030833  0.49379374     0.12830
C2050       C  0.58139586  0.10659300  0.50540640     0.62360
F2051       F  0.99083004  0.21389140  0.56852618    -0.22810
F2052       F  0.51041757  0.24373276  0.02150001    -0.20140
F2053       F  0.54086144  0.24257732  0.56566707    -0.19810
F2054       F  0.56054138  0.08264940  0.49287104    -0.19870
F2055       F  0.59213863  0.09394832  0.53466275    -0.20190
F2056       F  0.60861618  0.11463393  0.48218705    -0.22860
C2057       C  0.58564162  0.32520776  0.55083391    -0.05700
C2058       C  0.59452011  0.31837608  0.51813349     0.00230
C2059       C  0.58413399  0.33812956  0.99172336    -0.08340
C2060       C  0.56299163  0.36305009  0.99922655    -0.05720
C2061       C  0.55248560  0.36909175  0.53227273     0.00210
C2062       C  0.56506225  0.35017993  0.55874994    -0.08250
C2063       C  0.55726545  0.35530068  0.59547579     0.62130
H2064       H  0.59384915  0.30932046  0.57043080     0.12820
H2065       H  0.55411611  0.37763381  0.97911675     0.12830
C2066       C  0.59604109  0.33324384  0.95597767     0.62360
F2067       F  0.57503734  0.33610900  0.61569431    -0.22810
F2068       F  0.02386628  0.34628707  0.60508473    -0.20140
F2069       F  0.56560590  0.38824687  0.60118522    -0.19810
F2070       F  0.58376631  0.30215687  0.94753963    -0.19870
F2071       F  0.63048867  0.33569958  0.95225883    -0.20190
F2072       F  0.58576560  0.35709658  0.93409668    -0.22860
C2073       C  0.74520140  0.24746282  0.53129987    -0.05700
C2074       C  0.74671703  0.22829510  0.56122785     0.00230
C2075       C  0.71657378  0.21607547  0.58059060    -0.08340
C2076       C  0.68600871  0.22417243  0.56963611    -0.05720
C2077       C  0.68438434  0.24372516  0.53989648     0.00210
C2078       C  0.71457223  0.25501390  0.51994639    -0.08250
C2079       C  0.71471412  0.27425795  0.48643080     0.62130
H2080       H  0.76846337  0.25688002  0.51700320     0.12820
H2081       H  0.66286783  0.21528340  0.58439901     0.12830
C2082       C  0.71666202  0.19505335  0.61305892     0.62360
F2083       F  0.74590912  0.27733897  0.46880746    -0.22810
F2084       F  0.70582643  0.30601542  0.49076626    -0.20140
F2085       F  0.69256231  0.25787021  0.96749120    -0.19810
F2086       F  0.73597941  0.21199617  0.63419308    -0.19870
F2087       F  0.72943522  0.16523323  0.60691275    -0.20190
F2088       F  0.68490555  0.18766130  0.62909389    -0.22860
C2089       C  0.60923245  0.78657989  0.51385860     0.03210
C2090       C  0.64080017  0.78190940  0.02434165    -0.12940
C2091       C  0.65058867  0.74957050  0.02955770     0.00710
C2092       C  0.62666747  0.72222322  0.02796389    -0.11470
C2093       C  0.59448005  0.72654865  0.51843500     0.03200
C2094       C  0.58733410  0.75880185  0.50892796    -0.10890
H2095       H  0.65677938  0.80329760  0.03020252     0.08800
H2096       H  0.63312464  0.69739490  0.03472831     0.06330
H2097       H  0.56364665  0.76278393  0.50012091     0.06170
C2098       C  0.82411697  0.69186962  0.09046585     0.03210
C2099       C  0.79399771  0.69436841  0.07583486    -0.12940
C2100       C  0.78003036  0.72506064  0.07365723     0.00710
C2101       C  0.79840629  0.75369418  0.08282767    -0.11470
C2102       C  0.82742213  0.75139058  0.09921748     0.03200
C2103       C  0.83819982  0.71969070  0.10522520    -0.10890
H2104       H  0.78194551  0.67294554  0.06538973     0.08800
H2105       H  0.79005127  0.77770221  0.07664537     0.06330
H2106       H  0.85978321  0.71719943  0.11875541     0.06170
C2107       C  0.66721370  0.95088584  0.20378471     0.03210
C2108       C  0.67077902  0.96056801  0.23609103    -0.12940
C2109       C  0.69915643  0.95400174  0.25177086     0.00710
C2110       C  0.72503983  0.93994569  0.23426179    -0.11470
C2111       C  0.72472316  0.93619050  0.19998451     0.03200
C2112       C  0.69477795  0.93912571  0.18602954    -0.10890
H2113       H  0.65249990  0.97426002  0.24870300     0.08800
H2114       H  0.74747350  0.93650399  0.24623932     0.06330
H2115       H  0.69362274  0.93478134  0.16037012     0.06170
C2116       C  0.76253712  0.51543890  0.42064431     0.03210
C2117       C  0.75837182  0.50934580  0.38747904    -0.12940
C2118       C  0.72631519  0.50657952  0.37667047     0.00710
C2119       C  0.69879914  0.51102312  0.39893686    -0.11470
C2120       C  0.70284114  0.51717601  0.43206134     0.03200
C2121       C  0.73471323  0.51897257  0.44278393    -0.10890
H2122       H  0.77967188  0.50493657  0.37076463     0.08800
H2123       H  0.67392919  0.50761714  0.39100897     0.06330
H2124       H  0.73776027  0.52074731  0.46890916     0.06170
C2125       C  0.50525030  0.62732123  0.27111275     0.03210
C2126       C  0.51148817  0.60893586  0.30024547    -0.12940
C2127       C  0.50486637  0.62097744  0.33143853     0.00710
C2128       C  0.49687671  0.65382090  0.33355552    -0.11470
C2129       C  0.49131831  0.67315385  0.30497229     0.03200
C2130       C  0.49432820  0.65935421  0.27388197    -0.10890
H2131       H  0.51810806  0.58359610  0.29897351     0.08800
H2132       H  0.49234297  0.66342412  0.35773754     0.06330
H2133       H  0.48630370  0.67277306  0.25259512     0.06170
C2134       C  0.92146121  0.84393876  0.35842888     0.03210
C2135       C  0.93167143  0.81163242  0.35600472    -0.12940
C2136       C  0.93271786  0.79686263  0.32545416     0.00710
C2137       C  0.92489486  0.81515984  0.29713821    -0.11470
C2138       C  0.91744318  0.84844433  0.29847996     0.03200
C2139       C  0.91460471  0.86203153  0.32937132    -0.10890
H2140       H  0.94056799  0.79871090  0.37714069     0.08800
H2141       H  0.92774470  0.80448507  0.27330252     0.06330
H2142       H  0.90974816  0.88791036  0.33042450     0.06170
O2143       O  0.52639898  0.91764085  0.01395093    -0.86410
O2144       O  0.93102280  0.96340745  0.17046422    -0.86570
O2145       O  0.53280713  0.94084719  0.12448856    -0.88240
O2146       O  0.93984596  0.88243478  0.10216893    -0.87000
O2147       O  0.89584454  0.89458568  0.07321526    -0.86590
O2148       O  0.55578419  0.99503317  0.11280802    -0.87960
O2149       O  0.95888553  0.92033085  0.15297299    -0.86440
O2150       O  0.51476778  0.89577812  0.06738514    -0.86020
Zr2151     Zr  0.98094399  0.93219983  0.09683285     2.84310
O2152       O  0.92814833  0.95061416  0.10067781    -1.08000
O2153       O  0.51731801  0.96858348  0.06039775    -1.08730
C2154       C  0.52963888  0.89580843  0.03810362     1.06700
C2155       C  0.94279654  0.93464172  0.17551951     1.06640
C2156       C  0.55550883  0.96539321  0.12642075     1.09630
C2157       C  0.91077577  0.87514697  0.09199206     1.07410
H2158       H  0.99197526  0.98501660  0.13801085     0.32960
O2159       O  0.98407681  0.98568370  0.11624033    -1.28950
H2160       H  0.95939362  0.90932901  0.03749965     0.32640
O2161       O  0.96051610  0.93167059  0.04483257    -1.30630
O2162       O  0.89933698  0.55314988  0.11438026    -0.86400
O2163       O  0.99895969  0.00635564  0.45801870    -0.87900
O2164       O  0.51559018  0.55074498  0.13128044    -0.86480
O2165       O  0.85764529  0.94928108  0.09014613    -0.86530
O2166       O  0.91174981  0.92221857  0.99679487    -0.86240
O2167       O  0.57070573  0.51925658  0.04036821    -0.86050
O2168       O  0.98445313  0.59270955  0.02841046    -0.86420
O2169       O  0.89837647  0.53311451  0.99863498    -0.85880
O2170       O  0.52826417  0.58065653  0.05771898    -0.86940
O2171       O  0.87328874  0.98042960  0.01318829    -0.86100
O2172       O  0.96154605  0.53962420  0.15439801    -0.86500
O2173       O  0.55554716  0.98733186  0.99850086    -0.86220
O2174       O  0.96580415  0.93357320  0.47383884    -0.85870
O2175       O  0.87444505  0.98091546  0.13104567    -0.86280
O2176       O  0.90985967  0.57436094  0.05997577    -0.86580
O2177       O  0.96837247  0.54917549  0.47241015    -0.87910
Zr2178     Zr  0.93090961  0.00367937  0.12015324     2.83100
Zr2179     Zr  0.99715055  0.96844630  0.00837197     2.83500
Zr2180     Zr  0.51981922  0.52263197  0.07885609     2.84090
Zr2181     Zr  0.90731654  0.95095812  0.04887650     2.83360
Zr2182     Zr  0.94693027  0.54073148  0.03024202     2.84220
O2183       O  0.94403172  0.98696992  0.01184809    -1.08490
O2184       O  0.96648979  0.54085751  0.08287921    -1.07990
C2185       C  0.89576375  0.57435985  0.08976947     1.06670
C2186       C  0.98643791  0.53413321  0.45146342     1.09290
C2187       C  0.99175598  0.55264478  0.15454214     1.06850
C2188       C  0.85260513  0.96202721  0.11862966     1.07210
C2189       C  0.93566545  0.92047354  0.47354876     1.06790
C2190       C  0.57732025  0.00424301  0.01345634     1.06340
C2191       C  0.51291340  0.60042728  0.03961561     1.06770
C2192       C  0.87541706  0.50907355  0.99658684     1.06280
H2193       H  0.51511191  0.53726802  0.01108226     0.32960
O2194       O  0.00012750  0.52252389  0.02652567    -1.29580
H2195       H  0.88832343  0.51181922  0.06880739     0.32980
O2196       O  0.91044441  0.00463352  0.06762531    -1.30970
C2197       C  0.90983178  0.91824555  0.23104817    -0.05700
C2198       C  0.93781535  0.91487123  0.20877524     0.00230
C2199       C  0.95909025  0.88976707  0.21738218    -0.08340
C2200       C  0.95078053  0.86927133  0.24665989    -0.05720
C2201       C  0.92155874  0.87097378  0.26736063     0.00210
C2202       C  0.90033884  0.89579293  0.25929852    -0.08250
C2203       C  0.86698688  0.89896128  0.27853740     0.62130
H2204       H  0.89406500  0.93740396  0.22562454     0.12820
H2205       H  0.96742188  0.85110880  0.25363555     0.12830
C2206       C  0.99073110  0.88351761  0.19637708     0.62360
F2207       F  0.84310184  0.90267056  0.25659299    -0.22810
F2208       F  0.86960822  0.92686984  0.29654282    -0.20140
F2209       F  0.85593930  0.87126173  0.29990847    -0.19810
F2210       F  0.50870456  0.91339049  0.18570071    -0.19870
F2211       F  0.98271241  0.86623028  0.16936886    -0.20190
F2212       F  0.01134809  0.86497796  0.21394054    -0.22860
C2213       C  0.90903802  0.87157729  0.44734852    -0.05700
C2214       C  0.92911476  0.90220000  0.44375967     0.00230
C2215       C  0.94486530  0.91396203  0.41181849    -0.08340
C2216       C  0.94312815  0.89301093  0.38575330    -0.05720
C2217       C  0.92380816  0.86206062  0.38921137     0.00210
C2218       C  0.90548238  0.85148366  0.42029171    -0.08250
C2219       C  0.88176822  0.81974997  0.42486247     0.62130
H2220       H  0.89672906  0.86313307  0.47168717     0.12820
H2221       H  0.95682839  0.90106105  0.36192150     0.12830
C2222       C  0.96285025  0.94887957  0.40442456     0.62360
F2223       F  0.86228929  0.81749366  0.45497090    -0.22810
F2224       F  0.89950179  0.79216241  0.42410228    -0.20140
F2225       F  0.86068924  0.81917861  0.39986710    -0.19810
F2226       F  0.99450369  0.94977246  0.41472322    -0.19870
F2227       F  0.94516495  0.97193050  0.42037974    -0.20190
F2228       F  0.96595635  0.95843819  0.37075098    -0.22860
C2229       C  0.48615685  0.57756773  0.24310675    -0.05700
C2230       C  0.50380213  0.60946890  0.23994658     0.00230
C2231       C  0.52078461  0.62147649  0.20855153    -0.08340
C2232       C  0.51727188  0.60191746  0.18106868    -0.05720
C2233       C  0.99870120  0.57046347  0.18447204     0.00210
C2234       C  0.98472040  0.55722383  0.21653586    -0.08250
C2235       C  0.96888456  0.52140242  0.22339563     0.62130
H2236       H  0.47329548  0.56832318  0.26700937     0.12820
H2237       H  0.02831794  0.61147134  0.15655216     0.12830
C2238       C  0.54287415  0.65426906  0.20382109     0.62360
F2239       F  0.46751055  0.01096871  0.25677585    -0.22810
F2240       F  0.48744883  0.99998954  0.20595863    -0.20140
F2241       F  0.93672036  0.01886153  0.21433380    -0.19810
F2242       F  0.56332622  0.65680574  0.22925311    -0.19870
F2243       F  0.52351960  0.68067064  0.20338397    -0.20190
F2244       F  0.56307070  0.65674564  0.17412920    -0.22860
C2245       C  0.52743566  0.58195175  0.37185564    -0.05700
C2246       C  0.49999479  0.59708222  0.36121961     0.00230
C2247       C  0.96765776  0.58684708  0.37709140    -0.08340
C2248       C  0.96446309  0.56433635  0.40525693    -0.05720
C2249       C  0.99209645  0.55104105  0.41757088     0.00210
C2250       C  0.52399126  0.55854359  0.39972427    -0.08250
C2251       C  0.55411773  0.54225348  0.40999681     0.62130
H2252       H  0.55160487  0.58880806  0.35818409     0.12820
H2253       H  0.94013351  0.55758411  0.41867252     0.12830
C2254       C  0.93642117  0.59918484  0.36433143     0.62360
F2255       F  0.58285080  0.55416120  0.38997807    -0.22810
F2256       F  0.54894827  0.00817444  0.40767781    -0.20140
F2257       F  0.55921896  0.54841636  0.44227484    -0.19810
F2258       F  0.93636326  0.59500006  0.33073804    -0.19870
F2259       F  0.93514109  0.63253050  0.36961668    -0.20190
F2260       F  0.90768882  0.58179850  0.38031968    -0.22860
C2261       C  0.94237289  0.70558259  0.31115698    -0.05700
C2262       C  0.97713727  0.70547567  0.30894439     0.00230
C2263       C  0.49727835  0.73522154  0.31308667    -0.08340
C2264       C  0.98178763  0.76440133  0.31924277    -0.05720
C2265       C  0.94698743  0.76453439  0.32140378     0.00210
C2266       C  0.92687679  0.73473987  0.31729879    -0.08250
C2267       C  0.88920852  0.73377461  0.31997354     0.62130
H2268       H  0.92743846  0.68241906  0.30836198     0.12820
H2269       H  0.49675084  0.78753777  0.32206469     0.12830
C2270       C  0.53494182  0.73600260  0.31061267     0.62360
F2271       F  0.87417852  0.70191763  0.31743086    -0.22810
F2272       F  0.87962876  0.75450043  0.29483103    -0.20140
F2273       F  0.87783090  0.74436730  0.35034529    -0.19810
F2274       F  0.54647802  0.72593010  0.28005816    -0.19870
F2275       F  0.54423536  0.71470282  0.33545901    -0.20190
F2276       F  0.55007883  0.76767633  0.31382956    -0.22860
C2277       C  0.65448186  0.98338106  0.46127250    -0.05700
C2278       C  0.67321275  0.51442075  0.45654737     0.00230
C2279       C  0.66305888  0.54126429  0.47442544    -0.08340
C2280       C  0.63272960  0.53636849  0.49506755    -0.05720
C2281       C  0.61223259  0.50604838  0.49746957     0.00210
C2282       C  0.62442870  0.97846412  0.48165578    -0.08250
C2283       C  0.60626352  0.94364331  0.48582083     0.62130
H2284       H  0.66329895  0.96295608  0.44797095     0.12820
H2285       H  0.62428618  0.55661397  0.00828785     0.12830
C2286       C  0.68322167  0.57520853  0.47022945     0.62360
F2287       F  0.62729820  0.91963395  0.47766613    -0.22810
F2288       F  0.58075431  0.94160116  0.46537274    -0.20140
F2289       F  0.59367806  0.93631915  0.01849789    -0.19810
F2290       F  0.68624994  0.58706572  0.43718046    -0.19870
F2291       F  0.71456430  0.57279996  0.48041238    -0.20190
F2292       F  0.66848190  0.59828137  0.98888833    -0.22860
C2293       C  0.81123534  0.54402112  0.44315093    -0.05700
C2294       C  0.79501298  0.51417852  0.43420427     0.00230
C2295       C  0.80683859  0.48340966  0.44329716    -0.08340
C2296       C  0.83429237  0.98354798  0.46196071    -0.05720
C2297       C  0.84957994  0.51314312  0.47297707     0.00210
C2298       C  0.83859490  0.54425531  0.46234841    -0.08250
C2299       C  0.85455132  0.57747729  0.47174293     0.62130
H2300       H  0.80132411  0.56714331  0.43593408     0.12820
H2301       H  0.84346068  0.95998696  0.46891254     0.12830
C2302       C  0.78954420  0.95039988  0.43473969     0.62360
F2303       F  0.83840204  0.60404186  0.46019547    -0.22810
F2304       F  0.88731068  0.58252846  0.45801764    -0.20140
F2305       F  0.85336042  0.57778254  0.00591338    -0.19810
F2306       F  0.79109210  0.94916858  0.40065681    -0.19870
F2307       F  0.75653341  0.94716481  0.44775999    -0.20190
F2308       F  0.80422232  0.92331232  0.44744649    -0.22860
C2309       C  0.64259638  0.96713434  0.15210132    -0.05700
C2310       C  0.63705090  0.95629217  0.18610618     0.00230
C2311       C  0.60354698  0.94832230  0.20045481    -0.08340
C2312       C  0.57760949  0.95282932  0.18028862    -0.05720
C2313       C  0.58371737  0.96014571  0.14594592     0.00210
C2314       C  0.61686586  0.96658379  0.13139995    -0.08250
C2315       C  0.62529491  0.97197168  0.09407118     0.62130
H2316       H  0.66762388  0.97547828  0.14126089     0.12820
H2317       H  0.55240135  0.95155584  0.19162552     0.12830
C2318       C  0.59409002  0.93481488  0.23629581     0.62360
F2319       F  0.65888385  0.97043776  0.08499116    -0.22810
F2320       F  0.61711636  0.00285844  0.08277156    -0.20140
F2321       F  0.60778982  0.94732746  0.07876278    -0.19810
F2322       F  0.59572485  0.96061481  0.25705804    -0.19870
F2323       F  0.61481912  0.91122264  0.24547972    -0.20190
F2324       F  0.56181578  0.91940566  0.24065200    -0.22860
C2325       C  0.79452761  0.93327227  0.12870478    -0.05700
C2326       C  0.81990612  0.95492943  0.13963401     0.00330
C2327       C  0.81361324  0.96873263  0.17112270    -0.08340
C2328       C  0.78189376  0.96248297  0.18795782    -0.05720
C2329       C  0.75716465  0.93952712  0.17834197     0.00210
C2330       C  0.76373050  0.92420009  0.14803694    -0.08250
C2331       C  0.73923817  0.89876021  0.13488632     0.62130
H2332       H  0.79909630  0.92263663  0.10505995     0.12820
H2333       H  0.77610964  0.97625408  0.20936893     0.12830
C2334       C  0.83963155  0.98871536  0.18908025     0.62360
F2335       F  0.75600791  0.87645741  0.11716434    -0.22810
F2336       F  0.72005833  0.91471328  0.11350198    -0.20140
F2337       F  0.71901976  0.88051071  0.16036089    -0.19810
F2338       F  0.85069418  0.51887696  0.17188569    -0.19870
F2339       F  0.86610976  0.97038097  0.19271758    -0.20190
F2340       F  0.82762071  0.99562446  0.22074681    -0.22860
C2341       C  0.71928403  0.50016878  0.28425636    -0.05700
C2342       C  0.70484866  0.96716322  0.28418366     0.00230
C2343       C  0.69802763  0.94705524  0.31430506    -0.08340
C2344       C  0.70588585  0.96082585  0.34393945    -0.05720
C2345       C  0.72043738  0.49380953  0.34407456     0.00210
C2346       C  0.72719240  0.51397570  0.31390793    -0.08250
C2347       C  0.74211050  0.54994686  0.31324167     0.62130
H2348       H  0.72454167  0.51493178  0.26074591     0.12820
H2349       H  0.70068175  0.94595695  0.36739608     0.12830
C2350       C  0.68235490  0.91137161  0.31491395     0.62360
F2351       F  0.74492022  0.56571676  0.28159448    -0.22810
F2352       F  0.77356979  0.55107072  0.32400723    -0.20140
F2353       F  0.72210844  0.56742643  0.33385991    -0.19810
F2354       F  0.70285235  0.89293263  0.29587991    -0.19870
F2355       F  0.65184126  0.91103174  0.30214236    -0.20190
F2356       F  0.67732327  0.89615195  0.34682149    -0.22860
C2357       C  0.82424314  0.62950337  0.09648181    -0.05700
C2358       C  0.84219905  0.66116258  0.08944665     0.00230
C2359       C  0.87748483  0.66284313  0.08258778    -0.08340
C2360       C  0.89351311  0.63418746  0.08877511    -0.05720
C2361       C  0.87580154  0.60269574  0.09505097     0.00210
C2362       C  0.84050051  0.59997044  0.09704724    -0.08250
C2363       C  0.82025634  0.56634818  0.09793372     0.62130
H2364       H  0.79735886  0.62794304  0.10072907     0.12820
H2365       H  0.92052364  0.63588672  0.08494389     0.12830
C2366       C  0.89947203  0.69294155  0.06589996     0.62360
F2367       F  0.78657763  0.56947792  0.09724327    -0.22810
F2368       F  0.82442176  0.54762848  0.12652927    -0.20140
F2369       F  0.83065764  0.54955751  0.07080963    -0.19810
F2370       F  0.91791503  0.70750635  0.08914268    -0.19870
F2371       F  0.88154581  0.71614842  0.05086886    -0.20190
F2372       F  0.92133486  0.68285673  0.04111240    -0.22860
C2373       C  0.88391024  0.78256893  0.09728753    -0.05700
C2374       C  0.84927092  0.78200479  0.10560664     0.00230
C2375       C  0.83673352  0.81147335  0.11658322    -0.08340
C2376       C  0.85797897  0.84140081  0.11278998    -0.05720
C2377       C  0.89207345  0.84214860  0.10195746     0.00210
C2378       C  0.90573990  0.81185889  0.09647598    -0.08250
C2379       C  0.94293635  0.81054940  0.08885657     0.62130
H2380       H  0.89389465  0.76022667  0.08974929     0.12820
H2381       H  0.84778978  0.86461148  0.11813339     0.12830
C2382       C  0.80136209  0.81246027  0.13200329     0.62360
F2383       F  0.95089850  0.77853906  0.08373466    -0.22810
F2384       F  0.95893487  0.82121033  0.11551876    -0.20140
F2385       F  0.95460712  0.83088810  0.06062476    -0.19810
F2386       F  0.78763648  0.78144863  0.14590555    -0.19870
F2387       F  0.78206499  0.82345163  0.10800113    -0.20190
F2388       F  0.80079910  0.83420391  0.15704833    -0.22860
C2389       C  0.51703258  0.66263276  0.03878260    -0.05700
C2390       C  0.53101491  0.63375352  0.02961242     0.00230
C2391       C  0.56343968  0.63672887  0.01282000    -0.08340
C2392       C  0.58116668  0.66822540  0.00639633    -0.05720
C2393       C  0.56916749  0.69683800  0.01874161     0.00210
C2394       C  0.53575139  0.69434579  0.03449643    -0.08250
C2395       C  0.51948785  0.72398729  0.04766428     0.62130
H2396       H  0.99188162  0.65983299  0.05093439     0.12820
H2397       H  0.60610641  0.67030582  0.99379049     0.12830
C2398       C  0.58138954  0.60659206  0.00540090     0.62360
F2399       F  0.99083048  0.71389134  0.06852676    -0.22810
F2400       F  0.51041817  0.74373281  0.52150032    -0.20140
F2401       F  0.54086725  0.74257882  0.06566655    -0.19810
F2402       F  0.56053074  0.58264643  0.99287387    -0.19870
F2403       F  0.59213965  0.59395108  0.03465502    -0.20190
F2404       F  0.60860408  0.61462957  0.98217399    -0.22860
C2405       C  0.58564133  0.82520637  0.05083323    -0.05700
C2406       C  0.59452018  0.81837509  0.01813274     0.00230
C2407       C  0.58413389  0.83812870  0.49172448    -0.08340
C2408       C  0.56299078  0.86304829  0.49922822    -0.05720
C2409       C  0.55248583  0.86909120  0.03227240     0.00210
C2410       C  0.56506225  0.85017884  0.05874945    -0.08250
C2411       C  0.55726563  0.85529948  0.09547534     0.62130
H2412       H  0.59384861  0.80931875  0.07043002     0.12820
H2413       H  0.55411528  0.87763230  0.47911862     0.12830
C2414       C  0.59604154  0.83324425  0.45597861     0.62360
F2415       F  0.57503743  0.83610752  0.11569370    -0.22810
F2416       F  0.02386632  0.84628704  0.10508458    -0.20140
F2417       F  0.56560639  0.88824559  0.10118491    -0.19810
F2418       F  0.58376754  0.80215741  0.44753957    -0.19870
F2419       F  0.63048915  0.83570075  0.45226012    -0.20190
F2420       F  0.58576579  0.85709729  0.43409809    -0.22860
C2421       C  0.74520215  0.74746256  0.03129973    -0.05700
C2422       C  0.74671743  0.72829475  0.06122772     0.00230
C2423       C  0.71657397  0.71607483  0.08059000    -0.08340
C2424       C  0.68600901  0.72417133  0.06963485    -0.05720
C2425       C  0.68438504  0.74372419  0.03989522     0.00210
C2426       C  0.71457314  0.75501345  0.01994577    -0.08250
C2427       C  0.71471538  0.77425797  0.98643038     0.62130
H2428       H  0.76846426  0.75688003  0.01700346     0.12820
H2429       H  0.66286795  0.71528195  0.08439725     0.12830
C2430       C  0.71666190  0.69505297  0.11305854     0.62360
F2431       F  0.74591074  0.77733998  0.96880771    -0.22810
F2432       F  0.70582675  0.80601505  0.99076621    -0.20140
F2433       F  0.69256281  0.75786975  0.46749100    -0.19810
F2434       F  0.73597894  0.71199606  0.13419282    -0.19870
F2435       F  0.72943528  0.66523285  0.10691283    -0.20190
F2436       F  0.68490528  0.68766097  0.12909318    -0.22860
C2437       C  0.60923207  0.78658048  0.01385868     0.03210
C2438       C  0.64080046  0.78190886  0.52434167    -0.12940
C2439       C  0.65058898  0.74957000  0.52955749     0.00710
C2440       C  0.62666783  0.72222271  0.52796348    -0.11470
C2441       C  0.59447966  0.72654913  0.01843547     0.03200
C2442       C  0.58733362  0.75880236  0.00892844    -0.10890
H2443       H  0.65677952  0.80329704  0.53020284     0.08800
H2444       H  0.63312501  0.69739437  0.53472786     0.06330
H2445       H  0.56364612  0.76278438  0.00012151     0.06170
C2446       C  0.82411711  0.69186974  0.59046616     0.03210
C2447       C  0.79399791  0.69436845  0.57583507    -0.12940
C2448       C  0.78003051  0.72506064  0.57365737     0.00710
C2449       C  0.79840636  0.75369423  0.58282782    -0.11470
C2450       C  0.82742215  0.75139070  0.59921772     0.03200
C2451       C  0.83819986  0.71969084  0.60522553    -0.10890
H2452       H  0.78194578  0.67294556  0.56538991     0.08800
H2453       H  0.79005131  0.77770223  0.57664544     0.06330
H2454       H  0.85978322  0.71719962  0.61875581     0.06170
C2455       C  0.66721382  0.95088569  0.70378509     0.03210
C2456       C  0.67077962  0.96056867  0.73609105    -0.12940
C2457       C  0.69915699  0.95400228  0.75177088     0.00710
C2458       C  0.72504016  0.93994580  0.73426192    -0.11470
C2459       C  0.72472322  0.93619012  0.69998475     0.03200
C2460       C  0.69477777  0.93912476  0.68603012    -0.10890
H2461       H  0.65250090  0.97426122  0.74870283     0.08800
H2462       H  0.74747394  0.93650428  0.74623933     0.06330
H2463       H  0.69362215  0.93477926  0.66037106     0.06170
C2464       C  0.76253722  0.51543899  0.92064429     0.03210
C2465       C  0.75837191  0.50934588  0.88747902    -0.12940
C2466       C  0.72631527  0.50657960  0.87667046     0.00710
C2467       C  0.69879924  0.51102323  0.89893685    -0.11470
C2468       C  0.70284125  0.51717613  0.93206132     0.03200
C2469       C  0.73471334  0.51897268  0.94278390    -0.10890
H2470       H  0.77967195  0.50493662  0.87076461     0.08800
H2471       H  0.67392927  0.50761726  0.89100897     0.06330
H2472       H  0.73776038  0.52074743  0.96890914     0.06170
C2473       C  0.50525048  0.62732111  0.77111280     0.03210
C2474       C  0.51148832  0.60893566  0.80024548    -0.12940
C2475       C  0.50486663  0.62097721  0.83143855     0.00710
C2476       C  0.49687711  0.65382070  0.83355561    -0.11470
C2477       C  0.49131873  0.67315372  0.80497243     0.03200
C2478       C  0.49432852  0.65935412  0.77388208    -0.10890
H2479       H  0.51810812  0.58359586  0.79897348     0.08800
H2480       H  0.49234342  0.66342389  0.85773765     0.06330
H2481       H  0.48630401  0.67277304  0.75259527     0.06170
C2482       C  0.92146095  0.84393899  0.85842870     0.03210
C2483       C  0.93167130  0.81163270  0.85600456    -0.12940
C2484       C  0.93271781  0.79686290  0.82545399     0.00710
C2485       C  0.92489481  0.81516008  0.79713803    -0.11470
C2486       C  0.91744292  0.84844450  0.79847979     0.03200
C2487       C  0.91460435  0.86203171  0.82937114    -0.10890
H2488       H  0.94056789  0.79871123  0.87714053     0.08800
H2489       H  0.92774478  0.80448534  0.77330233     0.06330
H2490       H  0.90974762  0.88791049  0.83042431     0.06170
O2491       O  0.52639540  0.91763509  0.51395273    -0.86410
O2492       O  0.93102240  0.96340757  0.67046392    -0.86570
O2493       O  0.53280622  0.94084347  0.62449000    -0.88240
O2494       O  0.93984587  0.88243504  0.60216881    -0.87000
O2495       O  0.89584444  0.89458592  0.57321517    -0.86590
O2496       O  0.55578277  0.99502963  0.61281205    -0.87960
O2497       O  0.95888511  0.92033092  0.65297275    -0.86440
O2498       O  0.51476627  0.89577480  0.56738755    -0.86020
Zr2499     Zr  0.98094391  0.93220011  0.59683271     2.84310
O2500       O  0.92814821  0.95061435  0.60067773    -1.08000
O2501       O  0.51731839  0.96857865  0.56039994    -1.08730
C2502       C  0.52963660  0.89580415  0.53810581     1.06700
C2503       C  0.94279605  0.93464179  0.67551923     1.06640
C2504       C  0.55550791  0.96538932  0.62642286     1.09630
C2505       C  0.91077567  0.87514721  0.59199197     1.07410
H2506       H  0.99197520  0.98501702  0.63801041     0.32960
O2507       O  0.98407676  0.98568408  0.61623986    -1.28950
H2508       H  0.95939375  0.90932953  0.53749944     0.32640
O2509       O  0.96051620  0.93167113  0.54483238    -1.30630
O2510       O  0.89933694  0.55314995  0.61438048    -0.86400
O2511       O  0.99895972  0.00635546  0.95801907    -0.87900
O2512       O  0.51559002  0.55074501  0.63128054    -0.86480
O2513       O  0.85764528  0.94928144  0.59014604    -0.86530
O2514       O  0.91174988  0.92221871  0.49679483    -0.86240
O2515       O  0.57070549  0.51925656  0.54036827    -0.86050
O2516       O  0.98445291  0.59270938  0.52841036    -0.86420
O2517       O  0.89837618  0.53311448  0.49863510    -0.85880
O2518       O  0.52826399  0.58065644  0.55771889    -0.86940
O2519       O  0.87328879  0.98042974  0.51318816    -0.86100
O2520       O  0.96154592  0.53962429  0.65439815    -0.86500
O2521       O  0.55554206  0.98733056  0.49850180    -0.86220
O2522       O  0.96580409  0.93357285  0.97383890    -0.85870
O2523       O  0.87444509  0.98091556  0.63104574    -0.86280
O2524       O  0.90985942  0.57436095  0.55997597    -0.86580
O2525       O  0.96837258  0.54917553  0.97240992    -0.87910
Zr2526     Zr  0.93090955  0.00367963  0.62015296     2.83100
Zr2527     Zr  0.99715069  0.96844688  0.50837174     2.83500
Zr2528     Zr  0.51981900  0.52263195  0.57885630     2.84090
Zr2529     Zr  0.90731657  0.95095837  0.54887639     2.83360
Zr2530     Zr  0.94692983  0.54073139  0.53024225     2.84220
O2531       O  0.94403182  0.98697019  0.51184807    -1.08490
O2532       O  0.96648959  0.54085765  0.58287940    -1.07990
C2533       C  0.89576366  0.57435992  0.58976972     1.06670
C2534       C  0.98643797  0.53413324  0.95146319     1.09290
C2535       C  0.99175584  0.55264491  0.65454228     1.06850
C2536       C  0.85260513  0.96202745  0.61862964     1.07210
C2537       C  0.93566535  0.92047337  0.97354878     1.06790
C2538       C  0.57731565  0.00424226  0.51345674     1.06340
C2539       C  0.51291325  0.60042717  0.53961545     1.06770
C2540       C  0.87541683  0.50907350  0.49658693     1.06280
H2541       H  0.51511143  0.53726785  0.51108260     0.32960
O2542       O  0.00012716  0.52252373  0.52652595    -1.29580
H2543       H  0.88832307  0.51181918  0.56880766     0.32980
O2544       O  0.91044465  0.00463383  0.56762493    -1.30970
C2545       C  0.90983071  0.91824506  0.73104751    -0.05700
C2546       C  0.93781473  0.91487129  0.70877496     0.00230
C2547       C  0.95909003  0.88976761  0.71738220    -0.08340
C2548       C  0.95078041  0.86927188  0.74665994    -0.05720
C2549       C  0.92155839  0.87097392  0.76736045     0.00210
C2550       C  0.90033804  0.89579256  0.75929802    -0.08250
C2551       C  0.86698592  0.89896049  0.77853678     0.62130
H2552       H  0.89406336  0.93740282  0.72562337     0.12820
H2553       H  0.96742201  0.85110967  0.75363579     0.12830
C2554       C  0.99073116  0.88351861  0.69637734     0.62360
F2555       F  0.84310082  0.90266906  0.75659228    -0.22810
F2556       F  0.86960671  0.92686928  0.79654191    -0.20140
F2557       F  0.85593876  0.87126102  0.79990811    -0.19810
F2558       F  0.50870318  0.91339503  0.68570349    -0.19870
F2559       F  0.98271297  0.86623091  0.66936920    -0.20190
F2560       F  0.01134843  0.86497956  0.71394107    -0.22860
C2561       C  0.90903794  0.87157724  0.94734845    -0.05700
C2562       C  0.92911457  0.90220000  0.94375964     0.00230
C2563       C  0.94486494  0.91396221  0.91181844    -0.08340
C2564       C  0.94312770  0.89301124  0.88575315    -0.05720
C2565       C  0.92380785  0.86206085  0.88921120     0.00210
C2566       C  0.90548223  0.85148373  0.92029159    -0.08250
C2567       C  0.88176813  0.81975001  0.92486236     0.62130
H2568       H  0.89672913  0.86313289  0.97168713     0.12820
H2569       H  0.95682781  0.90106149  0.86192132     0.12830
C2570       C  0.96284981  0.94887981  0.90442462     0.62360
F2571       F  0.86228924  0.81749365  0.95497081    -0.22810
F2572       F  0.89950175  0.79216248  0.92410213    -0.20140
F2573       F  0.86068911  0.81917863  0.89986703    -0.19810
F2574       F  0.99450330  0.94977272  0.91472314    -0.19870
F2575       F  0.94516451  0.97193062  0.92038000    -0.20190
F2576       F  0.96595576  0.95843859  0.87075107    -0.22860
C2577       C  0.48615686  0.57756771  0.74310677    -0.05700
C2578       C  0.50380220  0.60946885  0.73994661     0.00230
C2579       C  0.52078460  0.62147649  0.70855154    -0.08340
C2580       C  0.51727176  0.60191751  0.68106868    -0.05720
C2581       C  0.99870106  0.57046364  0.68447213     0.00210
C2582       C  0.98472031  0.55722400  0.71653595    -0.08250
C2583       C  0.96888452  0.52140257  0.72339573     0.62130
H2584       H  0.47329553  0.56832314  0.76700940     0.12820
H2585       H  0.02831776  0.61147151  0.65655219     0.12830
C2586       C  0.54287415  0.65426905  0.70382108     0.62360
F2587       F  0.46750735  0.01097019  0.75677754    -0.22810
F2588       F  0.48744619  0.99998976  0.70596091    -0.20140
F2589       F  0.93672036  0.01886145  0.71433366    -0.19810
F2590       F  0.56332624  0.65680575  0.72925309    -0.19870
F2591       F  0.52351961  0.68067063  0.70338393    -0.20190
F2592       F  0.56307070  0.65674559  0.67412919    -0.22860
C2593       C  0.52743585  0.58195153  0.87185566    -0.05700
C2594       C  0.49999500  0.59708199  0.86121960     0.00230
C2595       C  0.96765776  0.58684715  0.87709134    -0.08340
C2596       C  0.96446312  0.56433633  0.90525677    -0.05720
C2597       C  0.99209651  0.55104110  0.91757070     0.00210
C2598       C  0.52399142  0.55854340  0.89972431    -0.08250
C2599       C  0.55411788  0.54225334  0.90999696     0.62130
H2600       H  0.55160508  0.58880782  0.85818413     0.12820
H2601       H  0.94013354  0.55758398  0.91867234     0.12830
C2602       C  0.93642114  0.59918484  0.86433140     0.62360
F2603       F  0.58285098  0.55416106  0.88997827    -0.22810
F2604       F  0.54894946  0.00817630  0.90767634    -0.20140
F2605       F  0.55921903  0.54841627  0.94227500    -0.19810
F2606       F  0.93636324  0.59500009  0.83073801    -0.19870
F2607       F  0.93514099  0.63253048  0.86961669    -0.20190
F2608       F  0.90768882  0.58179843  0.88031964    -0.22860
C2609       C  0.94237282  0.70558283  0.81115695    -0.05700
C2610       C  0.97713719  0.70547587  0.80894443     0.00230
C2611       C  0.49727882  0.73522133  0.81308712    -0.08340
C2612       C  0.98178757  0.76440156  0.81924276    -0.05720
C2613       C  0.94698738  0.76453465  0.82140368     0.00210
C2614       C  0.92687674  0.73474013  0.81729870    -0.08250
C2615       C  0.88920847  0.73377490  0.81997337     0.62130
H2616       H  0.92743838  0.68241931  0.80836194     0.12820
H2617       H  0.49675133  0.78753746  0.82206552     0.12830
C2618       C  0.53494229  0.73600237  0.81061304     0.62360
F2619       F  0.87417845  0.70191792  0.81743070    -0.22810
F2620       F  0.87962877  0.75450069  0.79483080    -0.20140
F2621       F  0.87783080  0.74436764  0.85034508    -0.19810
F2622       F  0.54647844  0.72593008  0.78005842    -0.19870
F2623       F  0.54423588  0.71470241  0.83545921    -0.20190
F2624       F  0.55007932  0.76767605  0.81383013    -0.22860
C2625       C  0.65448485  0.98338330  0.96127161    -0.05700
C2626       C  0.67321288  0.51442085  0.95654735     0.00230
C2627       C  0.66305897  0.54126441  0.97442537    -0.08340
C2628       C  0.63272970  0.53636859  0.99506746    -0.05720
C2629       C  0.61223278  0.50604843  0.99746955     0.00210
C2630       C  0.62443222  0.97846547  0.98165538    -0.08250
C2631       C  0.60626694  0.94364461  0.98582002     0.62130
H2632       H  0.66330238  0.96295856  0.94796999     0.12820
H2633       H  0.62428616  0.55661384  0.50828801     0.12830
C2634       C  0.68322174  0.57520865  0.97022940     0.62360
F2635       F  0.62730159  0.91963545  0.97766490    -0.22810
F2636       F  0.58075760  0.94160263  0.96537200    -0.20140
F2637       F  0.59367462  0.93631831  0.51849872    -0.19810
F2638       F  0.68625001  0.58706585  0.93718040    -0.19870
F2639       F  0.71456437  0.57280008  0.98041233    -0.20190
F2640       F  0.66848184  0.59828126  0.48888838    -0.22860
C2641       C  0.81123545  0.54402118  0.94315093    -0.05700
C2642       C  0.79501308  0.51417860  0.93420425     0.00230
C2643       C  0.80683869  0.48340973  0.94329713    -0.08340
C2644       C  0.83429198  0.98354868  0.96196105    -0.05720
C2645       C  0.84958010  0.51314317  0.97297702     0.00210
C2646       C  0.83859503  0.54425536  0.96234840    -0.08250
C2647       C  0.85455143  0.57747732  0.97174295     0.62130
H2648       H  0.80132422  0.56714338  0.93593411     0.12820
H2649       H  0.84345976  0.95998743  0.96891301     0.12830
C2650       C  0.78954333  0.95040140  0.93473999     0.62360
F2651       F  0.83840214  0.60404190  0.96019554    -0.22810
F2652       F  0.88731079  0.58252852  0.95801766    -0.20140
F2653       F  0.85336030  0.57778256  0.50591335    -0.19810
F2654       F  0.79109175  0.94916963  0.90065715    -0.19870
F2655       F  0.75653239  0.94716733  0.94775973    -0.20190
F2656       F  0.80422046  0.92331350  0.94744752    -0.22860
C2657       C  0.64259581  0.96713106  0.65210110    -0.05700
C2658       C  0.63705079  0.95629157  0.68610671     0.00230
C2659       C  0.60354691  0.94832382  0.70045632    -0.08340
C2660       C  0.57760932  0.95282969  0.68029023    -0.05720
C2661       C  0.58371667  0.96014183  0.64594712     0.00210
C2662       C  0.61686489  0.96657869  0.63140018    -0.08250
C2663       C  0.62529312  0.97196336  0.59407106     0.62130
H2664       H  0.66762316  0.97547421  0.64125975     0.12820
H2665       H  0.55240148  0.95155857  0.69162749     0.12830
C2666       C  0.59408966  0.93481975  0.73629818     0.62360
F2667       F  0.65888206  0.97042971  0.58499080    -0.22810
F2668       F  0.61711352  0.00284879  0.58276860    -0.20140
F2669       F  0.60778822  0.94731693  0.57876535    -0.19810
F2670       F  0.59572546  0.96062174  0.75705792    -0.19870
F2671       F  0.61481778  0.91122742  0.74548415    -0.20190
F2672       F  0.56181494  0.91941170  0.74065555    -0.22860
C2673       C  0.79452777  0.93327221  0.62870486    -0.05700
C2674       C  0.81990609  0.95492970  0.63963395     0.00330
C2675       C  0.81361295  0.96873331  0.67112240    -0.08340
C2676       C  0.78189348  0.96248340  0.68795752    -0.05720
C2677       C  0.75716460  0.93952712  0.67834191     0.00210
C2678       C  0.76373060  0.92419998  0.64803694    -0.08250
C2679       C  0.73923836  0.89876007  0.63488622     0.62130
H2680       H  0.79909663  0.92263644  0.60506013     0.12820
H2681       H  0.77610915  0.97625467  0.70936846     0.12830
C2682       C  0.83963094  0.98871695  0.68907963     0.62360
F2683       F  0.75600813  0.87645787  0.61716342    -0.22810
F2684       F  0.72005793  0.91471322  0.61350254    -0.20140
F2685       F  0.71902058  0.88050992  0.66036082    -0.19810
F2686       F  0.85069405  0.51887702  0.67188579    -0.19870
F2687       F  0.86610935  0.97038304  0.69271791    -0.20190
F2688       F  0.82761971  0.99562696  0.72074577    -0.22860
C2689       C  0.71928397  0.50016882  0.78425638    -0.05700
C2690       C  0.70484943  0.96716405  0.78418352     0.00230
C2691       C  0.69802812  0.94705644  0.81430514    -0.08340
C2692       C  0.70588640  0.96082734  0.84393938    -0.05720
C2693       C  0.72043742  0.49380959  0.84407456     0.00210
C2694       C  0.72719240  0.51397575  0.81390793    -0.08250
C2695       C  0.74211053  0.54994690  0.81324164     0.62130
H2696       H  0.72454159  0.51493182  0.76074591     0.12820
H2697       H  0.70068201  0.94595877  0.86739618     0.12830
C2698       C  0.68235510  0.91137288  0.81491442     0.62360
F2699       F  0.74492023  0.56571679  0.78159444    -0.22810
F2700       F  0.77356983  0.55107075  0.82400716    -0.20140
F2701       F  0.72210850  0.56742650  0.83385989    -0.19810
F2702       F  0.70285232  0.89293354  0.79588054    -0.19870
F2703       F  0.65184145  0.91103309  0.80214291    -0.20190
F2704       F  0.67732345  0.89615353  0.84682209    -0.22860
C2705       C  0.82424323  0.62950352  0.59648211    -0.05700
C2706       C  0.84219919  0.66116271  0.58944703     0.00230
C2707       C  0.87748497  0.66284324  0.58258823    -0.08340
C2708       C  0.89351319  0.63418753  0.58877551    -0.05720
C2709       C  0.87580155  0.60269583  0.59505128     0.00210
C2710       C  0.84050054  0.59997058  0.59704748    -0.08250
C2711       C  0.82025635  0.56634834  0.59793380     0.62130
H2712       H  0.79735894  0.62794321  0.60072934     0.12820
H2713       H  0.92052372  0.63588673  0.58494432     0.12830
C2714       C  0.89947223  0.69294169  0.56590053     0.62360
F2715       F  0.78657764  0.56947813  0.59724338    -0.22810
F2716       F  0.82442175  0.54762850  0.62652927    -0.20140
F2717       F  0.83065764  0.54955779  0.57080963    -0.19810
F2718       F  0.91791509  0.70750646  0.58914336    -0.19870
F2719       F  0.88154607  0.71614856  0.55086935    -0.20190
F2720       F  0.92133518  0.68285692  0.54111305    -0.22860
C2721       C  0.88391022  0.78256911  0.59728787    -0.05700
C2722       C  0.84927087  0.78200497  0.60560684     0.00230
C2723       C  0.83673340  0.81147358  0.61658319    -0.08340
C2724       C  0.85797882  0.84140106  0.61278983    -0.05720
C2725       C  0.89207333  0.84214885  0.60195743     0.00210
C2726       C  0.90573984  0.81185911  0.59647622    -0.08250
C2727       C  0.94293631  0.81054962  0.58885702     0.62130
H2728       H  0.89389469  0.76022681  0.58974983     0.12820
H2729       H  0.84778958  0.86461175  0.61813307     0.12830
C2730       C  0.80136194  0.81246053  0.63200318     0.62360
F2731       F  0.95089851  0.77853925  0.58373533    -0.22810
F2732       F  0.95893467  0.82121071  0.61551923    -0.20140
F2733       F  0.95460719  0.83088818  0.56062515    -0.19810
F2734       F  0.78763633  0.78144891  0.64590552    -0.19870
F2735       F  0.78206489  0.82345179  0.60800094    -0.20190
F2736       F  0.80079891  0.83420426  0.65704813    -0.22860
C2737       C  0.51703269  0.66263269  0.53878226    -0.05700
C2738       C  0.53101486  0.63375335  0.52961212     0.00230
C2739       C  0.56343962  0.63672852  0.51281968    -0.08340
C2740       C  0.58116679  0.66822496  0.50639600    -0.05720
C2741       C  0.56916775  0.69683764  0.51874120     0.00210
C2742       C  0.53575166  0.69434564  0.53449603    -0.08250
C2743       C  0.51948830  0.72398727  0.54766389     0.62130
H2744       H  0.99188146  0.65983288  0.55093438     0.12820
H2745       H  0.60610654  0.67030523  0.49379020     0.12830
C2746       C  0.58138934  0.60659160  0.50540076     0.62360
F2747       F  0.99083029  0.71389132  0.56852660    -0.22810
F2748       F  0.51041767  0.74373277  0.02150070    -0.20140
F2749       F  0.54086780  0.74257869  0.56566613    -0.19810
F2750       F  0.56053039  0.58264582  0.49287411    -0.19870
F2751       F  0.59213962  0.59395091  0.53465491    -0.20190
F2752       F  0.60860375  0.61462888  0.48217364    -0.22860
C2753       C  0.58564071  0.82520402  0.55083425    -0.05700
C2754       C  0.59452029  0.81837403  0.51813346     0.00230
C2755       C  0.58413386  0.83812944  0.99172342    -0.08340
C2756       C  0.56299156  0.86305006  0.99922659    -0.05720
C2757       C  0.55248421  0.86908794  0.53227426     0.00210
C2758       C  0.56506060  0.85017544  0.55875099    -0.08250
C2759       C  0.55726242  0.85529466  0.59547695     0.62130
H2760       H  0.59384808  0.80931611  0.57043076     0.12820
H2761       H  0.55411611  0.87763383  0.97911679     0.12830
C2762       C  0.59604099  0.83324370  0.95597775     0.62360
F2763       F  0.57503325  0.83610186  0.61569544    -0.22810
F2764       F  0.02386598  0.84628698  0.60508436    -0.20140
F2765       F  0.56560277  0.88824044  0.60118809    -0.19810
F2766       F  0.58376616  0.80215677  0.94753968    -0.19870
F2767       F  0.63048858  0.83569936  0.95225895    -0.20190
F2768       F  0.58576559  0.85709648  0.93409674    -0.22860
C2769       C  0.74520238  0.74746241  0.53129976    -0.05700
C2770       C  0.74671762  0.72829465  0.56122778     0.00230
C2771       C  0.71657415  0.71607464  0.58059000    -0.08340
C2772       C  0.68600921  0.72417100  0.56963475    -0.05720
C2773       C  0.68438529  0.74372380  0.53989508     0.00210
C2774       C  0.71457339  0.75501317  0.51994571    -0.08250
C2775       C  0.71471564  0.77425769  0.48643031     0.62130
H2776       H  0.76846450  0.75687993  0.51700353     0.12820
H2777       H  0.66286812  0.71528157  0.58439709     0.12830
C2778       C  0.71666204  0.69505286  0.61305858     0.62360
F2779       F  0.74591106  0.77733991  0.46880775    -0.22810
F2780       F  0.70582675  0.80601468  0.49076610    -0.20140
F2781       F  0.69256236  0.75787019  0.96749117    -0.19810
F2782       F  0.73597895  0.71199605  0.63419289    -0.19870
F2783       F  0.72943554  0.66523277  0.60691297    -0.20190
F2784       F  0.68490539  0.68766077  0.62909313    -0.22860
loop_ 
_geom_bond_atom_site_label_1 
_geom_bond_atom_site_label_2 
_geom_bond_distance 
_geom_bond_site_symmetry_2 
_ccdc_geom_bond_type 
C1            C6   1.400       .  A
C1          C350   1.409       .  A
C1          C666   1.478       .  S
C2            C3   1.407       .  A
C2          C349   1.409       .  A
C2            H7   1.082       .  S
C3            C4   1.408       .  A
C3          C337   1.503       .  S
C4          C353   1.416       .  A
C4            H8   1.083       .  S
C5            C6   1.397       .  A
C5          C352   1.416       .  A
C5          C653   1.502       .  S
C6            H9   1.076       .  S
C10          C11   1.413       .  A
C10          C15   1.405       .  A
C10         C270   1.498       .  S
C11          C12   1.410       .  A
C11          H16   1.083       .  S
C12          C13   1.405       .  A
C12         C334   1.497       .  S
C13          C14   1.409       .  A
C13          H17   1.077       .  S
C14          C15   1.403       .  A
C14         C286   1.502       .  S
C15          H18   1.083       .  S
C19          C20   1.407       .  A
C19          C24   1.410       .  A
C19         C222   1.498       .  S
C20          C21   1.401       .  A
C20          H25   1.077       .  S
C21          C22   1.398       .  A
C21         C254   1.478       .  S
C22          C23   1.409       .  A
C22          H26   1.085       .  S
C23          C24   1.396       .  A
C23         C241   1.502       .  S
C24          H27   1.071       .  S
C28          C29   1.405       .  A
C28          C33   1.400       .  A
C28         C206   1.475       .  S
C29          C30   1.405       .  A
C29          H34   1.083       .  S
C30          C31   1.402       .  A
C30         C257   1.480   1_545  S
C31          C32   1.403       .  A
C31          H35   1.085       .  S
C32          C33   1.397       .  A
C32         C190   1.477       .  S
C33          H36   1.084       .  S
C37          C38   1.409       .  A
C37          C42   1.413   1_455  A
C37         C142   1.498       .  S
C38          C39   1.396       .  A
C38          H43   1.084       .  S
C39          C40   1.400   1_455  A
C39         C158   1.482   1_455  S
C40          C41   1.401       .  A
C40          H44   1.084       .  S
C41          C42   1.411       .  A
C41        C1566   1.486       .  S
C42          H45   1.080       .  S
C46          C47   1.411       .  A
C46          C51   1.408       .  A
C46         C129   1.493       .  S
C47          C48   1.408       .  A
C47          H52   1.081       .  S
C48          C49   1.401       .  A
C48         C177   1.488       .  S
C49          C50   1.407       .  A
C49          H53   1.084       .  S
C50          C51   1.399       .  A
C50         C113   1.493       .  S
C51          H54   1.083       .  S
O55          C66   1.298       .  A
O55       Zr1483   2.470   1_455  S
O56          C67   1.307       .  A
O56         Zr90   2.524       .  S
O57          C68   1.299       .  A
O57       Zr1455   2.477   1_455  S
O58          C69   1.297       .  A
O58         Zr63   2.471       .  S
O59          C69   1.287       .  A
O59         Zr93   2.406       .  S
O60          C68   1.283       .  A
O60        Zr788   2.393       .  S
O61          C67   1.275       .  A
O61         Zr63   2.369       .  S
O62          C66   1.281       .  A
O62       Zr1455   2.402   1_455  S
Zr63       O1449   2.477       .  S
Zr63       O1454   2.402       .  S
Zr63         O64   2.324       .  S
Zr63         O73   2.334       .  S
Zr63         O71   2.342       .  S
Zr63       O1457   2.329       .  S
O64         Zr90   2.327       .  S
O64         Zr93   2.333       .  S
O65       Zr1455   2.329   1_455  S
O65       Zr1483   2.330   1_455  S
O65        Zr788   2.348       .  S
C66         C321   1.502       .  S
C67         C110   1.508       .  S
C68         C225   1.472       .  S
C69         C289   1.482       .  S
H70          O71   0.965       .  S
O71         Zr90   2.332       .  S
O71       Zr2180   2.349       .  S
H72          O73   0.966       .  S
O73         Zr91   2.343       .  S
O73         Zr93   2.354       .  S
O74          C97   1.299       .  A
O74        Zr786   2.479       .  S
O75         C794   1.295       .  A
O75        Zr439   2.461       .  S
O76        C1491   1.298   1_455  A
O76         Zr92   2.473       .  S
O77         C100   1.301       .  A
O77         Zr93   2.490       .  S
O78         C449   1.299       .  A
O78         Zr93   2.475   1_556  S
O79         C798   1.301       .  A
O79         Zr92   2.489       .  S
O80        C1495   1.296       .  A
O80         Zr94   2.466       .  S
O81         C104   1.292       .  A
O81         Zr94   2.450   1_556  S
O82         C103   1.289       .  A
O82         Zr92   2.423       .  S
O83         C800   1.291   1_554  A
O83         Zr93   2.419       .  S
O84          C99   1.287       .  A
O84        Zr786   2.411       .  S
O85         C102   1.285   1_556  A
O85       Zr1483   2.406   1_456  S
O86         C101   1.286       .  A
O86        Zr439   2.409       .  S
O87         C100   1.274       .  A
O87         Zr90   2.375       .  S
O88          C97   1.288       .  A
O88         Zr94   2.411       .  S
O89          C98   1.289       .  A
O89        Zr442   2.416       .  S
Zr90        O770   2.479       .  S
Zr90        O780   2.411       .  S
Zr90        O108   2.354       .  S
Zr90        O792   2.348       .  S
Zr91       O1447   2.470       .  S
Zr91        O423   2.461   1_554  S
Zr91       O1477   2.406   1_554  S
Zr91        O434   2.409   1_554  S
Zr91         O95   2.338       .  S
Zr91       O1457   2.330       .  S
Zr91        O802   2.344       .  S
Zr92        O756   2.393   1_545  S
Zr92        O761   2.348   1_545  S
Zr92       O2159   2.349   1_445  S
Zr92       O1488   2.342   1_455  S
Zr92       O1498   2.334       .  S
Zr93         O95   2.341       .  S
Zr93        O108   2.338       .  S
Zr94        O437   2.416   1_554  S
Zr94         O96   2.343       .  S
Zr94        O106   2.336       .  S
Zr94        O791   2.336   1_545  S
Zr94        O804   2.346       .  S
O95        Zr790   2.336       .  S
O96        Zr786   2.348       .  S
O96       Zr1484   2.342       .  S
C97         C273   1.477       .  S
C98         C161   1.482       .  S
C98         O771   1.295       .  A
C99         C145   1.486       .  S
C99        O1468   1.298       .  A
C100        C238   1.501       .  S
C101        C126   1.487       .  S
C101        O426   1.299       .  A
C102       C1237   1.494   1_554  S
C102        O775   1.301       .  A
C103        C302   1.484       .  S
C103       O1472   1.296   1_455  A
C104        C557   1.494       .  S
C104        O779   1.291   1_546  A
H105       O1498   0.964       .  S
O106       Zr787   2.344   1_545  S
O106      Zr1484   2.334       .  S
O106       H1497   0.964       .  S
H107        O804   0.965       .  S
O108       Zr790   2.346       .  S
O108        H803   0.965       .  S
C109        C110   1.406       .  A
C109        C114   1.414       .  A
C109        H116   1.072       .  S
C110        C111   1.436       .  A
C111        C112   1.397       .  A
C111        C118   1.524       .  S
C112        C113   1.397       .  A
C112        H117   1.082       .  S
C113        C114   1.421       .  A
C114        C115   1.518       .  S
C115        F119   1.384       .  S
C115        F120   1.383       .  S
C115        F121   1.382       .  S
C118        F123   1.383       .  S
C118        F124   1.386       .  S
C118       F1514   1.372       .  S
F122       C1510   1.372   1_455  S
C125        C126   1.406       .  A
C125        C130   1.416       .  A
C125        H132   1.083       .  S
C126        C127   1.422       .  A
C127        C128   1.398       .  A
C127        C134   1.523       .  S
C128        C129   1.402       .  A
C128        H133   1.084       .  S
C129        C130   1.422       .  A
C130        C131   1.518       .  S
C131        F135   1.385       .  S
C131        F136   1.381       .  S
C131        F137   1.383       .  S
C134        F138   1.382       .  S
C134        F139   1.384       .  S
C134        F140   1.385       .  S
C141        C142   1.405   1_655  A
C141       C1538   1.398       .  A
C141        H148   1.083       .  S
C142        C143   1.423       .  A
C143        C144   1.417       .  A
C143        C150   1.518       .  S
C144       C1537   1.406   1_455  A
C144       H1541   1.083       .  S
C145        C146   1.419       .  A
C145       C1536   1.406       .  A
C146       C1533   1.398       .  A
C146        C147   1.523       .  S
C147       F2239   1.385       .  S
C147       F2240   1.384   1_545  S
C147        F849   1.382       .  S
H149       C1536   1.083       .  S
C150        F154   1.383       .  S
C150        F155   1.381       .  S
C150        F156   1.385       .  S
F151       C2235   1.385       .  S
F152       C2235   1.384       .  S
F153        C843   1.382       .  S
C157        C158   1.405   1_455  A
C157        C162   1.413       .  A
C157        H164   1.083       .  S
C158       C1551   1.418       .  A
C159        C160   1.400       .  A
C159       C1550   1.418       .  A
C159        C166   1.523       .  S
C160        C161   1.403       .  A
C160        H165   1.084       .  S
C161       C1554   1.419       .  A
C162       C1553   1.419   1_455  A
C162        C163   1.517       .  S
C163        F167   1.384       .  S
C163        F169   1.378       .  S
C163        F864   1.382       .  S
C166        F170   1.383       .  S
C166        F171   1.381       .  S
C166        F172   1.385       .  S
F168        C859   1.382       .  S
C173        C174   1.403       .  A
C173        C178   1.410       .  A
C173        H180   1.083       .  S
C174       C1567   1.415       .  A
C174       C1433   1.486       .  S
C175       C1566   1.415       .  A
C175       C1568   1.411       .  A
C175        C182   1.517   1_655  S
C176        C177   1.405       .  A
C176       C1567   1.411       .  A
C176       H1573   1.083       .  S
C177        C178   1.416       .  A
C178        C179   1.517       .  S
C179        F183   1.384       .  S
C179        F184   1.382       .  S
C179        F185   1.383       .  S
H181       C1568   1.083       .  S
C182        F186   1.383       .  S
C182        F187   1.383       .  S
C182        F188   1.385       .  S
C189        C194   1.398       .  A
C189        C886   1.395       .  A
C189        H196   1.084       .  S
C190        C191   1.414       .  A
C190        C885   1.395   1_545  A
C191        C192   1.412       .  A
C191        C198   1.519       .  S
C192        C193   1.406       .  A
C192        H545   1.071       .  S
C193        C890   1.426   1_545  A
C193       C1146   1.494       .  S
C194        C889   1.426       .  A
C194        C195   1.516       .  S
C195        F199   1.385       .  S
C195        F200   1.382       .  S
C195        F549   1.378       .  S
H197        C540   1.071   1_554  S
C198        F202   1.384       .  S
C198        F203   1.380       .  S
C198        F552   1.382       .  S
F201        C543   1.378   1_554  S
F204        C546   1.382       .  S
C205        C206   1.402       .  A
C205        C210   1.411       .  A
C205        H212   1.083       .  S
C206        C207   1.411   1_545  A
C207        C904   1.401       .  A
C207        C910   1.522       .  S
C208        C903   1.401       .  A
C208        C905   1.411       .  A
C208        H213   1.082       .  S
C209        C210   1.424       .  A
C209        C904   1.411   1_545  A
C209        C452   1.494       .  S
C210        C211   1.520       .  S
C211        F215   1.385       .  S
C211        F216   1.383       .  S
C211        F565   1.383       .  S
C214        C903   1.522       .  S
C214        F218   1.382       .  S
C214        F219   1.383       .  S
C214        F220   1.385       .  S
F217        C559   1.383   1_554  S
C221        C222   1.410       .  A
C221        C226   1.396       .  A
C221        H228   1.082       .  S
C222        C223   1.426       .  A
C223        C224   1.407       .  A
C223        C230   1.520       .  S
C224        C225   1.399       .  A
C224        H229   1.076       .  S
C225        C226   1.410       .  A
C226        C227   1.517       .  S
C227        F231   1.385       .  S
C227        F232   1.380       .  S
C227        F233   1.381       .  S
C230        F234   1.382       .  S
C230        F235   1.382       .  S
C230        F236   1.385       .  S
C237        C238   1.408       .  A
C237        C242   1.416       .  A
C237        H244   1.083       .  S
C238        C239   1.437       .  A
C239        C240   1.392       .  A
C239        C246   1.533       .  S
C240        C241   1.400       .  A
C240        H245   1.080       .  S
C241        C242   1.426       .  A
C242        C243   1.517       .  S
C243        F247   1.377       .  S
C243        F248   1.383       .  S
C243        F249   1.383       .  S
C246        F251   1.372       .  S
C246        F252   1.386       .  S
C246        F946   1.378       .  S
F250        C942   1.378   1_545  S
C253        C258   1.408       .  A
C253        C950   1.404   1_545  A
C253        H260   1.083       .  S
C254        C255   1.412       .  A
C254        C949   1.404       .  A
C255        C256   1.406       .  A
C255        C262   1.516       .  S
C256        C953   1.405       .  A
C256        H261   1.083       .  S
C257        C258   1.414   1_565  A
C257        C952   1.405       .  A
C258        C259   1.517       .  S
C259        F263   1.385       .  S
C259        F264   1.382       .  S
C259        F265   1.383       .  S
C262        F266   1.383       .  S
C262        F267   1.382       .  S
C262        F268   1.384       .  S
C269        C270   1.408       .  A
C269        C274   1.414       .  A
C269        H276   1.082       .  S
C270        C271   1.426       .  A
C271        C272   1.398       .  A
C271        C278   1.519       .  S
C272        C273   1.396       .  A
C272        H277   1.086       .  S
C273        C274   1.419       .  A
C274        C275   1.515       .  S
C275        F279   1.385       .  S
C275        F280   1.374       .  S
C275        F281   1.383       .  S
C278        F282   1.382       .  S
C278        F283   1.382       .  S
C278        F284   1.385       .  S
C285        C286   1.411       .  A
C285        C290   1.405       .  A
C285        H292   1.073       .  S
C286        C287   1.418       .  A
C287        C288   1.407       .  A
C287        C294   1.515       .  S
C288        C289   1.408       .  A
C288        H293   1.085       .  S
C289        C290   1.410       .  A
C290        C291   1.517       .  S
C291        F295   1.384       .  S
C291        F296   1.382       .  S
C291        F297   1.383       .  S
C294        F298   1.383       .  S
C294        F299   1.379       .  S
C294        F300   1.385       .  S
C301        C302   1.400       .  A
C301        C306   1.417       .  A
C301       H1700   1.083   1_455  S
C302        C303   1.414       .  A
C303        C304   1.397       .  A
C303        C310   1.507       .  S
C304        C305   1.399       .  A
C304        H309   1.083   1_554  S
C305        C306   1.435       .  A
C305        C353   1.502       .  S
C306        C307   1.522       .  S
C307        F313   1.382       .  S
C307       F1703   1.384   1_455  S
C307        F660   1.382       .  S
H308       C1693   1.083       .  S
C310        F314   1.377   1_554  S
C310        F315   1.383       .  S
C310        F316   1.382   1_554  S
F311       C1699   1.384       .  S
F312        C655   1.382       .  S
C317        C318   1.394       .  A
C317        C322   1.401       .  A
C317        H324   1.084       .  S
C318        C667   1.411   1_554  A
C318        C349   1.478       .  S
C319        C320   1.411       .  A
C319        C666   1.411       .  A
C319        C326   1.516       .  S
C320        C669   1.412       .  A
C320        H325   1.082       .  S
C321        C322   1.435       .  A
C321        C668   1.412   1_554  A
C322        C323   1.525       .  S
C323        F327   1.385       .  S
C323        F329   1.381       .  S
C323       F1720   1.381       .  S
C326        F330   1.382       .  S
C326        F331   1.383       .  S
C326        F332   1.385       .  S
F328       C1715   1.381       .  S
C333        C334   1.405       .  A
C333        C338   1.414       .  A
C333        H340   1.083       .  S
C334        C335   1.419       .  A
C335        C336   1.412       .  A
C335        C342   1.519       .  S
C336        C337   1.407       .  A
C336        H341   1.083       .  S
C337        C338   1.423       .  A
C338        C339   1.519   1_554  S
C339        F343   1.385       .  S
C339        F344   1.381       .  S
C339        F693   1.383       .  S
C342        F346   1.383       .  S
C342        F347   1.382       .  S
C342        F348   1.385       .  S
F345        C687   1.383       .  S
C349        C354   1.400       .  A
C350        C351   1.407       .  A
C350        H355   1.082       .  S
C351        C352   1.408       .  A
C351        C685   1.503       .  S
C352        H356   1.083       .  S
C353        C354   1.397       .  A
C354        H357   1.076       .  S
C358        C359   1.413       .  A
C358        C363   1.405       .  A
C358        C618   1.498       .  S
C359        C360   1.410       .  A
C359        H364   1.083       .  S
C360        C361   1.405       .  A
C360        C682   1.497       .  S
C361        C362   1.409       .  A
C361        H365   1.077       .  S
C362        C363   1.403       .  A
C362        C634   1.502       .  S
C363        H366   1.083       .  S
C367        C368   1.407       .  A
C367        C372   1.410       .  A
C367        C570   1.498       .  S
C368        C369   1.401       .  A
C368        H373   1.077       .  S
C369        C370   1.398       .  A
C369        C602   1.478       .  S
C370        C371   1.409       .  A
C370        H374   1.085       .  S
C371        C372   1.396       .  A
C371        C589   1.502       .  S
C372        H375   1.071       .  S
C376        C377   1.405       .  A
C376        C381   1.400       .  A
C376        C554   1.475       .  S
C377        C378   1.405       .  A
C377        H382   1.083       .  S
C378        C379   1.402       .  A
C378        C605   1.480   1_545  S
C379        C380   1.403       .  A
C379        H383   1.085       .  S
C380        C381   1.397       .  A
C380        C538   1.477       .  S
C381        H384   1.084       .  S
C385        C386   1.409       .  A
C385        C390   1.413   1_455  A
C385        C490   1.498       .  S
C386        C387   1.396       .  A
C386        H391   1.084       .  S
C387        C388   1.400   1_455  A
C387        C506   1.482   1_455  S
C388        C389   1.401       .  A
C388        H392   1.084       .  S
C389        C390   1.411       .  A
C389       C1914   1.486       .  S
C390        H393   1.080       .  S
C394        C395   1.411       .  A
C394        C399   1.408       .  A
C394        C477   1.493       .  S
C395        C396   1.408       .  A
C395        H400   1.081       .  S
C396        C397   1.401       .  A
C396        C525   1.488       .  S
C397        C398   1.407       .  A
C397        H401   1.084       .  S
C398        C399   1.399       .  A
C398        C461   1.493       .  S
C399        H402   1.083       .  S
O403        C414   1.298       .  A
O403      Zr1831   2.470   1_455  S
O404        C415   1.307       .  A
O404       Zr438   2.524       .  S
O405        C416   1.299       .  A
O405      Zr1803   2.477   1_455  S
O406        C417   1.297       .  A
O406       Zr411   2.471       .  S
O407        C417   1.287       .  A
O407       Zr441   2.406       .  S
O408        C416   1.283       .  A
O408      Zr1136   2.393       .  S
O409        C415   1.275       .  A
O409       Zr411   2.369       .  S
O410        C414   1.281       .  A
O410      Zr1803   2.402   1_455  S
Zr411      O1797   2.477       .  S
Zr411      O1802   2.402       .  S
Zr411       O412   2.324       .  S
Zr411      O1805   2.329       .  S
Zr411       O421   2.334       .  S
Zr411       O419   2.342       .  S
O412       Zr438   2.327       .  S
O412       Zr441   2.333       .  S
O413      Zr1803   2.329   1_455  S
O413      Zr1831   2.330   1_455  S
O413      Zr1136   2.348       .  S
C414        C669   1.502       .  S
C415        C458   1.508       .  S
C416        C573   1.472       .  S
C417        C637   1.482       .  S
H418        O419   0.965       .  S
O419       Zr438   2.332       .  S
O419      Zr2528   2.349       .  S
H420        O421   0.966       .  S
O421       Zr439   2.343       .  S
O421       Zr441   2.354       .  S
O422        C445   1.299       .  A
O422      Zr1134   2.479       .  S
O423       C1142   1.295       .  A
O424       C1839   1.298   1_455  A
O424       Zr440   2.473       .  S
O425        C448   1.301       .  A
O425       Zr441   2.490       .  S
O426       Zr441   2.475       .  S
O427       C1146   1.301       .  A
O427       Zr440   2.489       .  S
O428       C1843   1.296       .  A
O428       Zr442   2.466       .  S
O429        C452   1.292       .  A
O429       Zr442   2.450       .  S
O430        C451   1.289       .  A
O430       Zr440   2.423       .  S
O431       C1148   1.291       .  A
O431       Zr441   2.419       .  S
O432        C447   1.287       .  A
O432      Zr1134   2.411       .  S
O433        C450   1.285       .  A
O433      Zr1831   2.406   1_455  S
O434        C449   1.286       .  A
O435        C448   1.274       .  A
O435       Zr438   2.375       .  S
O436        C445   1.288       .  A
O436       Zr442   2.411       .  S
O437        C446   1.289       .  A
Zr438      O1118   2.479       .  S
Zr438      O1128   2.411       .  S
Zr438      O1140   2.348       .  S
Zr438       O456   2.354       .  S
Zr439      O1795   2.470       .  S
Zr439      O1825   2.406       .  S
Zr439      O1805   2.330       .  S
Zr439       O443   2.338       .  S
Zr439      O1150   2.344       .  S
Zr440      O1104   2.393   1_545  S
Zr440      O1109   2.348   1_545  S
Zr440      O2507   2.349   1_445  S
Zr440      O1836   2.342   1_455  S
Zr440      O1846   2.334       .  S
Zr441       O443   2.341       .  S
Zr441       O456   2.338       .  S
Zr442      O1139   2.336   1_545  S
Zr442       O444   2.343       .  S
Zr442      O1152   2.346       .  S
Zr442       O454   2.336       .  S
O443      Zr1138   2.336       .  S
O444      Zr1134   2.348       .  S
O444      Zr1832   2.342       .  S
C445        C621   1.477       .  S
C446        C509   1.482       .  S
C446       O1119   1.295       .  A
C447        C493   1.486       .  S
C447       O1816   1.298       .  A
C448        C586   1.501       .  S
C449        C474   1.487       .  S
C450        C889   1.494       .  S
C450       O1123   1.301       .  A
C451        C650   1.484       .  S
C451       O1820   1.296   1_455  A
C452       O1127   1.291   1_545  A
H453       O1846   0.964       .  S
O454      Zr1135   2.344   1_545  S
O454      Zr1832   2.334       .  S
O454       H1845   0.964       .  S
H455       O1152   0.965       .  S
O456      Zr1138   2.346       .  S
O456       H1151   0.965       .  S
C457        C458   1.406       .  A
C457        C462   1.414       .  A
C457        H464   1.072       .  S
C458        C459   1.436       .  A
C459        C460   1.397       .  A
C459        C466   1.524       .  S
C460        C461   1.397       .  A
C460        H465   1.082       .  S
C461        C462   1.421       .  A
C462        C463   1.518       .  S
C463        F467   1.384       .  S
C463        F468   1.383       .  S
C463        F469   1.382       .  S
C466       F1862   1.372       .  S
C466        F471   1.383       .  S
C466        F472   1.386       .  S
F470       C1858   1.372   1_455  S
C473        C474   1.406       .  A
C473        C478   1.416       .  A
C473        H480   1.083       .  S
C474        C475   1.422       .  A
C475        C476   1.398       .  A
C475        C482   1.523       .  S
C476        C477   1.402       .  A
C476        H481   1.084       .  S
C477        C478   1.422       .  A
C478        C479   1.518       .  S
C479        F483   1.385       .  S
C479        F484   1.381       .  S
C479        F485   1.383       .  S
C482        F486   1.382       .  S
C482        F487   1.384       .  S
C482        F488   1.385       .  S
C489        C490   1.405   1_655  A
C489       C1886   1.398       .  A
C489        H496   1.083       .  S
C490        C491   1.423       .  A
C491        C492   1.417       .  A
C491        C498   1.518       .  S
C492       C1885   1.406   1_455  A
C492       H1889   1.083       .  S
C493       C1884   1.406       .  A
C493        C494   1.419       .  A
C494       C1881   1.398       .  A
C494        C495   1.523       .  S
C495       F2587   1.385       .  S
C495       F2588   1.384   1_545  S
C495       F1197   1.382       .  S
H497       C1884   1.083       .  S
C498        F502   1.383       .  S
C498        F503   1.381       .  S
C498        F504   1.385       .  S
F499       C2583   1.385       .  S
F500       C2583   1.384       .  S
F501       C1191   1.382       .  S
C505        C506   1.405   1_455  A
C505        C510   1.413       .  A
C505        H512   1.083       .  S
C506       C1899   1.418       .  A
C507       C1898   1.418       .  A
C507        C508   1.400       .  A
C507        C514   1.523       .  S
C508        C509   1.403       .  A
C508        H513   1.084       .  S
C509       C1902   1.419       .  A
C510       C1901   1.419   1_455  A
C510        C511   1.517       .  S
C511        F515   1.384       .  S
C511       F1212   1.382       .  S
C511        F517   1.378       .  S
C514        F518   1.383       .  S
C514        F519   1.381       .  S
C514        F520   1.385       .  S
F516       C1207   1.382       .  S
C521        C522   1.403       .  A
C521        C526   1.410       .  A
C521        H528   1.083       .  S
C522       C1915   1.415       .  A
C522       C1781   1.486       .  S
C523       C1914   1.415       .  A
C523       C1916   1.411       .  A
C523        C530   1.517   1_655  S
C524       C1915   1.411       .  A
C524        C525   1.405       .  A
C524       H1921   1.083       .  S
C525        C526   1.416       .  A
C526        C527   1.517       .  S
C527        F531   1.384       .  S
C527        F532   1.382       .  S
C527        F533   1.383       .  S
H529       C1916   1.083       .  S
C530        F534   1.383       .  S
C530        F535   1.383       .  S
C530        F536   1.385       .  S
C537       C1234   1.395       .  A
C537        C542   1.398       .  A
C537        H544   1.084       .  S
C538       C1233   1.395   1_545  A
C538        C539   1.414       .  A
C539        C540   1.412       .  A
C539        C546   1.519       .  S
C540        C541   1.406       .  A
C541       C1238   1.426   1_545  A
C541        C798   1.494   1_556  S
C542       C1237   1.426       .  A
C542        C543   1.516       .  S
C543        F547   1.385       .  S
C543        F548   1.382       .  S
C546        F550   1.384       .  S
C546        F551   1.380       .  S
C553        C554   1.402       .  A
C553        C558   1.411       .  A
C553        H560   1.083       .  S
C554        C555   1.411   1_545  A
C555       C1252   1.401       .  A
C555       C1258   1.522       .  S
C556       C1251   1.401       .  A
C556       C1253   1.411       .  A
C556        H561   1.082       .  S
C557       C1252   1.411   1_545  A
C557        C558   1.424       .  A
C558        C559   1.520       .  S
C559        F563   1.385       .  S
C559        F564   1.383       .  S
C562       C1251   1.522       .  S
C562        F566   1.382       .  S
C562        F567   1.383       .  S
C562        F568   1.385       .  S
C569        C570   1.410       .  A
C569        C574   1.396       .  A
C569        H576   1.082       .  S
C570        C571   1.426       .  A
C571        C572   1.407       .  A
C571        C578   1.520       .  S
C572        C573   1.399       .  A
C572        H577   1.076       .  S
C573        C574   1.410       .  A
C574        C575   1.517       .  S
C575        F579   1.385       .  S
C575        F580   1.380       .  S
C575        F581   1.381       .  S
C578        F582   1.382       .  S
C578        F583   1.382       .  S
C578        F584   1.385       .  S
C585        C586   1.408       .  A
C585        C590   1.416       .  A
C585        H592   1.083       .  S
C586        C587   1.437       .  A
C587        C588   1.392       .  A
C587        C594   1.533       .  S
C588        C589   1.400       .  A
C588        H593   1.080       .  S
C589        C590   1.426       .  A
C590        C591   1.517       .  S
C591        F595   1.377       .  S
C591        F596   1.383       .  S
C591        F597   1.383       .  S
C594       F1294   1.378       .  S
C594        F599   1.372       .  S
C594        F600   1.386       .  S
F598       C1290   1.378   1_545  S
C601       C1298   1.404   1_545  A
C601        C606   1.408       .  A
C601        H608   1.083       .  S
C602       C1297   1.404       .  A
C602        C603   1.412       .  A
C603        C604   1.406       .  A
C603        C610   1.516       .  S
C604       C1301   1.405       .  A
C604        H609   1.083       .  S
C605       C1300   1.405       .  A
C605        C606   1.414   1_565  A
C606        C607   1.517       .  S
C607        F611   1.385       .  S
C607        F612   1.382       .  S
C607        F613   1.383       .  S
C610        F614   1.383       .  S
C610        F615   1.382       .  S
C610        F616   1.384       .  S
C617        C618   1.408       .  A
C617        C622   1.414       .  A
C617        H624   1.082       .  S
C618        C619   1.426       .  A
C619        C620   1.398       .  A
C619        C626   1.519       .  S
C620        C621   1.396       .  A
C620        H625   1.086       .  S
C621        C622   1.419       .  A
C622        C623   1.515       .  S
C623        F627   1.385       .  S
C623        F628   1.374       .  S
C623        F629   1.383       .  S
C626        F630   1.382       .  S
C626        F631   1.382       .  S
C626        F632   1.385       .  S
C633        C634   1.411       .  A
C633        C638   1.405       .  A
C633        H640   1.073       .  S
C634        C635   1.418       .  A
C635        C636   1.407       .  A
C635        C642   1.515       .  S
C636        C637   1.408       .  A
C636        H641   1.085       .  S
C637        C638   1.410       .  A
C638        C639   1.517       .  S
C639        F643   1.384       .  S
C639        F644   1.382       .  S
C639        F645   1.383       .  S
C642        F646   1.383       .  S
C642        F647   1.379       .  S
C642        F648   1.385       .  S
C649        C650   1.400       .  A
C649        C654   1.417       .  A
C649       H2048   1.083   1_455  S
C650        C651   1.414       .  A
C651        C652   1.397       .  A
C651        C658   1.507       .  S
C652        C653   1.399       .  A
C652        H657   1.083       .  S
C653        C654   1.435       .  A
C654        C655   1.522       .  S
C655       F2051   1.384   1_455  S
C655        F661   1.382       .  S
H656       C2041   1.083       .  S
C658        F662   1.377       .  S
C658        F663   1.383       .  S
C658        F664   1.382       .  S
F659       C2047   1.384       .  S
C665        C666   1.394       .  A
C665        C670   1.401       .  A
C665        H672   1.084       .  S
C667        C668   1.411       .  A
C667        C674   1.516       .  S
C668        H673   1.082       .  S
C669        C670   1.435       .  A
C670        C671   1.525       .  S
C671        F675   1.385       .  S
C671       F2068   1.381       .  S
C671        F677   1.381       .  S
C674        F678   1.382       .  S
C674        F679   1.383       .  S
C674        F680   1.385       .  S
F676       C2063   1.381       .  S
C681        C682   1.405       .  A
C681        C686   1.414       .  A
C681        H688   1.083       .  S
C682        C683   1.419       .  A
C683        C684   1.412       .  A
C683        C690   1.519       .  S
C684        C685   1.407       .  A
C684        H689   1.083       .  S
C685        C686   1.423       .  A
C686        C687   1.519       .  S
C687        F691   1.385       .  S
C687        F692   1.381       .  S
C690        F694   1.383       .  S
C690        F695   1.382       .  S
C690        F696   1.385       .  S
C697       C1046   1.409       .  A
C697        C702   1.400       .  A
C697       C1362   1.478       .  S
C698       C1045   1.409       .  A
C698        C699   1.407       .  A
C698        H703   1.082       .  S
C699        C700   1.408       .  A
C699       C1033   1.503       .  S
C700       C1049   1.416       .  A
C700        H704   1.083       .  S
C701       C1048   1.416       .  A
C701        C702   1.397       .  A
C701       C1349   1.502       .  S
C702        H705   1.076       .  S
C706        C707   1.413       .  A
C706        C711   1.405       .  A
C706        C966   1.498       .  S
C707        C708   1.410       .  A
C707        H712   1.083       .  S
C708        C709   1.405       .  A
C708       C1030   1.497       .  S
C709        C710   1.409       .  A
C709        H713   1.077       .  S
C710        C711   1.403       .  A
C710        C982   1.502       .  S
C711        H714   1.083       .  S
C715        C716   1.407       .  A
C715        C720   1.410       .  A
C715        C918   1.498       .  S
C716        C717   1.401       .  A
C716        H721   1.077       .  S
C717        C718   1.398       .  A
C717        C950   1.478       .  S
C718        C719   1.409       .  A
C718        H722   1.085       .  S
C719        C720   1.396       .  A
C719        C937   1.502       .  S
C720        H723   1.071       .  S
C724        C725   1.405       .  A
C724        C729   1.400       .  A
C724        C902   1.475       .  S
C725        C726   1.405       .  A
C725        H730   1.083       .  S
C726        C727   1.402       .  A
C726        C953   1.480       .  S
C727        C728   1.403       .  A
C727        H731   1.085       .  S
C728        C729   1.397       .  A
C728        C886   1.477       .  S
C729        H732   1.084       .  S
C733        C734   1.409       .  A
C733        C738   1.413   1_455  A
C733        C838   1.498       .  S
C734        C735   1.396       .  A
C734        H739   1.084       .  S
C735        C736   1.400   1_455  A
C735        C854   1.482   1_455  S
C736        C737   1.401       .  A
C736        H740   1.084       .  S
C737        C738   1.411       .  A
C737       C2262   1.486       .  S
C738        H741   1.080       .  S
C742        C743   1.411       .  A
C742        C747   1.408       .  A
C742        C825   1.493       .  S
C743        C744   1.408       .  A
C743        H748   1.081       .  S
C744        C745   1.401       .  A
C744        C873   1.488       .  S
C745        C746   1.407       .  A
C745        H749   1.084       .  S
C746        C747   1.399       .  A
C746        C809   1.493       .  S
C747        H750   1.083       .  S
O751        C762   1.298       .  A
O751      Zr2179   2.470   1_455  S
O752        C763   1.307       .  A
O752       Zr786   2.524   1_565  S
O753        C764   1.299       .  A
O753      Zr2151   2.477   1_455  S
O754        C765   1.297       .  A
O754       Zr759   2.471       .  S
O755        C765   1.287       .  A
O755       Zr789   2.406       .  S
O756        C764   1.283       .  A
O757        C763   1.275       .  A
O757       Zr759   2.369       .  S
O758        C762   1.281       .  A
O758      Zr2151   2.402   1_455  S
Zr759      O2145   2.477       .  S
Zr759      O2150   2.402       .  S
Zr759       O760   2.324       .  S
Zr759      O2153   2.329       .  S
Zr759       O769   2.334       .  S
Zr759       O767   2.342       .  S
O760       Zr786   2.327   1_565  S
O760       Zr789   2.333       .  S
O761      Zr2151   2.329   1_455  S
O761      Zr2179   2.330   1_455  S
C762       C1017   1.502       .  S
C763        C806   1.508       .  S
C764        C921   1.472       .  S
C765        C985   1.482       .  S
H766        O767   0.965       .  S
O767       Zr786   2.332   1_565  S
O767      Zr1484   2.349   1_565  S
H768        O769   0.966       .  S
O769       Zr787   2.343       .  S
O769       Zr789   2.354       .  S
O770        C793   1.299       .  A
O771      Zr1135   2.461   1_545  S
O772       C2187   1.298   1_455  A
O772       Zr788   2.473       .  S
O773        C796   1.301       .  A
O773       Zr789   2.490       .  S
O774       C1145   1.299       .  A
O774       Zr789   2.475   1_556  S
O775       Zr788   2.489       .  S
O776       C2191   1.296       .  A
O776       Zr790   2.466       .  S
O777        C800   1.292       .  A
O777       Zr790   2.450   1_556  S
O778        C799   1.289       .  A
O778       Zr788   2.423       .  S
O779       Zr789   2.419       .  S
O780        C795   1.287       .  A
O781        C798   1.285   1_566  A
O781      Zr2179   2.406   1_456  S
O782        C797   1.286       .  A
O782      Zr1135   2.408       .  S
O783        C796   1.274       .  A
O783       Zr786   2.375   1_565  S
O784        C793   1.288       .  A
O784       Zr790   2.411       .  S
O785        C794   1.289       .  A
O785      Zr1138   2.416       .  S
Zr786       O804   2.354       .  S
Zr787      O2143   2.470       .  S
Zr787      O1119   2.461   1_564  S
Zr787      O2173   2.406   1_554  S
Zr787      O1130   2.409   1_554  S
Zr787      O2153   2.330       .  S
Zr787       O791   2.338       .  S
Zr788      O1463   2.349   1_455  S
Zr788      O2184   2.342   1_455  S
Zr788      O2194   2.334       .  S
Zr789       O791   2.341       .  S
Zr789       O804   2.338   1_565  S
Zr790      O1133   2.416   1_554  S
Zr790       O792   2.343       .  S
Zr790       O802   2.336       .  S
O792      Zr2180   2.342       .  S
C793        C969   1.477       .  S
C794        C857   1.482       .  S
C795        C841   1.486       .  S
C795       O2164   1.298       .  A
C796        C934   1.501       .  S
C797        C822   1.487       .  S
C797       O1122   1.299       .  A
C799        C998   1.484       .  S
C799       O2168   1.296   1_455  A
C800       C1253   1.494       .  S
H801       O2194   0.964       .  S
O802      Zr2180   2.334       .  S
O802       H2193   0.964       .  S
C805        C806   1.406       .  A
C805        C810   1.414       .  A
C805        H812   1.072       .  S
C806        C807   1.436       .  A
C807        C808   1.397       .  A
C807        C814   1.524       .  S
C808        C809   1.397       .  A
C808        H813   1.082       .  S
C809        C810   1.421       .  A
C810        C811   1.518       .  S
C811        F815   1.384       .  S
C811        F816   1.383       .  S
C811        F817   1.382       .  S
C814       F2210   1.372       .  S
C814        F819   1.383       .  S
C814        F820   1.386       .  S
F818       C2206   1.372   1_455  S
C821        C822   1.406       .  A
C821        C826   1.416       .  A
C821        H828   1.083       .  S
C822        C823   1.422       .  A
C823        C824   1.398       .  A
C823        C830   1.523       .  S
C824        C825   1.402       .  A
C824        H829   1.084       .  S
C825        C826   1.422       .  A
C826        C827   1.518       .  S
C827        F831   1.385       .  S
C827        F832   1.381       .  S
C827        F833   1.383       .  S
C830        F834   1.382       .  S
C830        F835   1.384       .  S
C830        F836   1.385       .  S
C837        C838   1.405   1_655  A
C837       C2234   1.398       .  A
C837        H844   1.083       .  S
C838        C839   1.423       .  A
C839        C840   1.417       .  A
C839        C846   1.518       .  S
C840       C2233   1.406   1_455  A
C840       H2237   1.083       .  S
C841       C2232   1.406       .  A
C841        C842   1.419       .  A
C842       C2229   1.398       .  A
C842        C843   1.523       .  S
C843       F1543   1.385       .  S
C843       F1544   1.384       .  S
H845       C2232   1.083       .  S
C846        F850   1.383       .  S
C846        F851   1.381       .  S
C846        F852   1.385       .  S
F847       C1539   1.385       .  S
F848       C1539   1.384   1_565  S
C853        C854   1.405   1_455  A
C853        C858   1.413       .  A
C853        H860   1.083       .  S
C854       C2247   1.418       .  A
C855       C2246   1.418       .  A
C855        C856   1.400       .  A
C855        C862   1.523       .  S
C856        C857   1.403       .  A
C856        H861   1.084       .  S
C857       C2250   1.419       .  A
C858       C2249   1.419   1_455  A
C858        C859   1.517       .  S
C859        F863   1.384       .  S
C859        F865   1.378       .  S
C862        F866   1.383       .  S
C862        F867   1.381       .  S
C862        F868   1.385       .  S
C869        C870   1.403       .  A
C869        C874   1.410       .  A
C869        H876   1.083       .  S
C870       C2263   1.415       .  A
C870       C2129   1.486       .  S
C871       C2262   1.415       .  A
C871       C2264   1.411       .  A
C871        C878   1.517   1_655  S
C872       C2263   1.411       .  A
C872        C873   1.405       .  A
C872       H2269   1.083       .  S
C873        C874   1.416       .  A
C874        C875   1.517       .  S
C875        F879   1.384       .  S
C875        F880   1.382       .  S
C875        F881   1.383       .  S
H877       C2264   1.083       .  S
C878        F882   1.383       .  S
C878        F883   1.383       .  S
C878        F884   1.385       .  S
C885        C890   1.398       .  A
C885        H892   1.084       .  S
C886        C887   1.414       .  A
C887        C888   1.412       .  A
C887        C894   1.519       .  S
C888        C889   1.406       .  A
C888       H1241   1.071       .  S
C890        C891   1.516       .  S
C891        F895   1.385       .  S
C891        F896   1.382       .  S
C891       F1245   1.378       .  S
H893       C1236   1.071   1_554  S
C894        F898   1.384       .  S
C894        F899   1.380       .  S
C894       F1248   1.382       .  S
F897       C1239   1.378   1_554  S
F900       C1242   1.382       .  S
C901        C902   1.402       .  A
C901        C906   1.411       .  A
C901        H908   1.083       .  S
C902        C903   1.411       .  A
C904        H909   1.082       .  S
C905        C906   1.424       .  A
C905       C1148   1.494       .  S
C906        C907   1.520       .  S
C907        F911   1.385       .  S
C907        F912   1.383       .  S
C907       F1261   1.383       .  S
C910        F914   1.382       .  S
C910        F915   1.383       .  S
C910        F916   1.385       .  S
F913       C1255   1.383   1_554  S
C917        C918   1.410       .  A
C917        C922   1.396       .  A
C917        H924   1.082       .  S
C918        C919   1.426       .  A
C919        C920   1.407       .  A
C919        C926   1.520       .  S
C920        C921   1.399       .  A
C920        H925   1.076       .  S
C921        C922   1.410       .  A
C922        C923   1.517       .  S
C923        F927   1.385       .  S
C923        F928   1.380   1_565  S
C923        F929   1.381       .  S
C926        F930   1.382       .  S
C926        F931   1.382       .  S
C926        F932   1.385       .  S
C933        C934   1.408       .  A
C933        C938   1.416       .  A
C933        H940   1.083       .  S
C934        C935   1.437       .  A
C935        C936   1.392       .  A
C935        C942   1.533       .  S
C936        C937   1.400       .  A
C936        H941   1.080       .  S
C937        C938   1.426       .  A
C938        C939   1.517       .  S
C939        F943   1.377       .  S
C939        F944   1.383       .  S
C939        F945   1.383       .  S
C942        F947   1.372       .  S
C942        F948   1.386       .  S
C949        C954   1.408       .  A
C949        H956   1.083       .  S
C950        C951   1.412       .  A
C951        C952   1.406       .  A
C951        C958   1.516       .  S
C952        H957   1.083       .  S
C953        C954   1.414       .  A
C954        C955   1.517       .  S
C955        F959   1.385       .  S
C955        F960   1.382       .  S
C955        F961   1.383       .  S
C958        F962   1.383       .  S
C958        F963   1.382       .  S
C958        F964   1.384       .  S
C965        C966   1.408       .  A
C965        C970   1.414       .  A
C965        H972   1.082       .  S
C966        C967   1.426       .  A
C967        C968   1.398       .  A
C967        C974   1.519       .  S
C968        C969   1.396       .  A
C968        H973   1.086       .  S
C969        C970   1.419       .  A
C970        C971   1.515       .  S
C971        F975   1.385       .  S
C971        F976   1.374       .  S
C971        F977   1.383       .  S
C974        F978   1.382       .  S
C974        F979   1.382       .  S
C974        F980   1.385       .  S
C981        C982   1.411       .  A
C981        C986   1.405       .  A
C981        H988   1.073       .  S
C982        C983   1.418       .  A
C983        C984   1.407       .  A
C983        C990   1.515       .  S
C984        C985   1.408       .  A
C984        H989   1.085       .  S
C985        C986   1.410       .  A
C986        C987   1.517       .  S
C987        F991   1.384       .  S
C987        F992   1.382       .  S
C987        F993   1.383       .  S
C990        F994   1.383       .  S
C990        F995   1.379       .  S
C990        F996   1.385       .  S
C997        C998   1.400       .  A
C997       C1002   1.417       .  A
C997       H2396   1.083   1_455  S
C998        C999   1.414       .  A
C999       C1000   1.397       .  A
C999       C1006   1.507       .  S
C1000      C1001   1.399       .  A
C1000      H1005   1.083   1_554  S
C1001      C1002   1.435       .  A
C1001      C1049   1.502       .  S
C1002      C1003   1.522       .  S
C1003      F2399   1.384   1_455  S
C1003      F1356   1.382       .  S
C1003      F1009   1.382       .  S
H1004      C2389   1.083       .  S
C1006      F1010   1.377   1_554  S
C1006      F1011   1.383       .  S
C1006      F1012   1.382   1_554  S
F1007      C2395   1.384       .  S
F1008      C1351   1.382       .  S
C1013      C1014   1.394       .  A
C1013      C1018   1.401       .  A
C1013      H1020   1.084       .  S
C1014      C1363   1.411   1_554  A
C1014      C1045   1.478       .  S
C1015      C1362   1.411       .  A
C1015      C1016   1.411       .  A
C1015      C1022   1.516       .  S
C1016      C1365   1.412       .  A
C1016      H1021   1.082       .  S
C1017      C1364   1.412   1_554  A
C1017      C1018   1.435       .  A
C1018      C1019   1.525       .  S
C1019      F1023   1.385       .  S
C1019      F2416   1.381       .  S
C1019      F1025   1.381       .  S
C1022      F1026   1.382       .  S
C1022      F1027   1.383       .  S
C1022      F1028   1.385       .  S
F1024      C2411   1.381       .  S
C1029      C1030   1.405       .  A
C1029      C1034   1.414       .  A
C1029      H1036   1.083       .  S
C1030      C1031   1.419       .  A
C1031      C1032   1.412       .  A
C1031      C1038   1.519       .  S
C1032      C1033   1.407       .  A
C1032      H1037   1.083       .  S
C1033      C1034   1.423       .  A
C1034      C1035   1.519   1_554  S
C1035      F1039   1.385       .  S
C1035      F1040   1.381       .  S
C1035      F1389   1.383       .  S
C1038      F1042   1.383       .  S
C1038      F1043   1.382       .  S
C1038      F1044   1.385       .  S
F1041      C1383   1.383       .  S
C1045      C1050   1.400       .  A
C1046      C1047   1.407       .  A
C1046      H1051   1.082       .  S
C1047      C1048   1.408       .  A
C1047      C1381   1.503       .  S
C1048      H1052   1.083       .  S
C1049      C1050   1.397       .  A
C1050      H1053   1.076       .  S
C1054      C1055   1.413       .  A
C1054      C1059   1.405       .  A
C1054      C1314   1.498       .  S
C1055      C1056   1.410       .  A
C1055      H1060   1.083       .  S
C1056      C1057   1.405       .  A
C1056      C1378   1.497       .  S
C1057      C1058   1.409       .  A
C1057      H1061   1.077       .  S
C1058      C1059   1.403       .  A
C1058      C1330   1.502       .  S
C1059      H1062   1.083       .  S
C1063      C1064   1.407       .  A
C1063      C1068   1.410       .  A
C1063      C1266   1.498       .  S
C1064      C1065   1.401       .  A
C1064      H1069   1.077       .  S
C1065      C1066   1.398       .  A
C1065      C1298   1.478       .  S
C1066      C1067   1.409       .  A
C1066      H1070   1.085       .  S
C1067      C1068   1.396       .  A
C1067      C1285   1.502       .  S
C1068      H1071   1.071       .  S
C1072      C1073   1.405       .  A
C1072      C1077   1.400       .  A
C1072      C1250   1.475       .  S
C1073      C1074   1.405       .  A
C1073      H1078   1.083       .  S
C1074      C1075   1.402       .  A
C1074      C1301   1.480       .  S
C1075      C1076   1.403       .  A
C1075      H1079   1.085       .  S
C1076      C1077   1.397       .  A
C1076      C1234   1.477       .  S
C1077      H1080   1.084       .  S
C1081      C1082   1.409       .  A
C1081      C1086   1.413   1_455  A
C1081      C1186   1.498       .  S
C1082      C1083   1.396       .  A
C1082      H1087   1.084       .  S
C1083      C1084   1.400   1_455  A
C1083      C1202   1.482   1_455  S
C1084      C1085   1.401       .  A
C1084      H1088   1.084       .  S
C1085      C1086   1.411       .  A
C1085      C2610   1.486       .  S
C1086      H1089   1.080       .  S
C1090      C1091   1.411       .  A
C1090      C1095   1.408       .  A
C1090      C1173   1.493       .  S
C1091      C1092   1.408       .  A
C1091      H1096   1.081       .  S
C1092      C1093   1.401       .  A
C1092      C1221   1.488       .  S
C1093      C1094   1.407       .  A
C1093      H1097   1.084       .  S
C1094      C1095   1.399       .  A
C1094      C1157   1.493       .  S
C1095      H1098   1.083       .  S
O1099      C1110   1.298       .  A
O1099     Zr2527   2.470   1_455  S
O1100      C1111   1.307       .  A
O1100     Zr1134   2.524   1_565  S
O1101      C1112   1.299       .  A
O1101     Zr2499   2.477   1_455  S
O1102      C1113   1.297       .  A
O1102     Zr1107   2.471       .  S
O1103      C1113   1.287       .  A
O1103     Zr1137   2.406       .  S
O1104      C1112   1.283       .  A
O1105      C1111   1.275       .  A
O1105     Zr1107   2.369       .  S
O1106      C1110   1.281       .  A
O1106     Zr2499   2.402   1_455  S
Zr1107     O2493   2.477       .  S
Zr1107     O2498   2.402       .  S
Zr1107     O1108   2.324       .  S
Zr1107     O2501   2.329       .  S
Zr1107     O1117   2.334       .  S
Zr1107     O1115   2.342       .  S
O1108     Zr1134   2.327   1_565  S
O1108     Zr1137   2.333       .  S
O1109     Zr2499   2.329   1_455  S
O1109     Zr2527   2.330   1_455  S
C1110      C1365   1.502       .  S
C1111      C1154   1.508       .  S
C1112      C1269   1.472       .  S
C1113      C1333   1.482       .  S
H1114      O1115   0.965       .  S
O1115     Zr1134   2.332   1_565  S
O1115     Zr1832   2.349   1_565  S
H1116      O1117   0.966       .  S
O1117     Zr1135   2.343       .  S
O1117     Zr1137   2.354       .  S
O1118      C1141   1.299       .  A
O1120      C2535   1.298   1_455  A
O1120     Zr1136   2.473       .  S
O1121      C1144   1.301       .  A
O1121     Zr1137   2.490       .  S
O1122     Zr1137   2.475       .  S
O1123     Zr1136   2.489       .  S
O1124      C2539   1.296       .  A
O1124     Zr1138   2.466       .  S
O1125      C1148   1.292       .  A
O1125     Zr1138   2.450       .  S
O1126      C1147   1.289       .  A
O1126     Zr1136   2.423       .  S
O1127     Zr1137   2.419       .  S
O1128      C1143   1.287       .  A
O1129      C1146   1.285   1_565  A
O1129     Zr2527   2.406   1_455  S
O1130      C1145   1.286       .  A
O1131      C1144   1.274       .  A
O1131     Zr1134   2.375   1_565  S
O1132      C1141   1.288       .  A
O1132     Zr1138   2.411       .  S
O1133      C1142   1.289       .  A
Zr1134     O1152   2.354       .  S
Zr1135     O2491   2.470       .  S
Zr1135     O2521   2.406       .  S
Zr1135     O2501   2.330       .  S
Zr1135     O1139   2.338       .  S
Zr1136     O1811   2.349   1_455  S
Zr1136     O2532   2.342   1_455  S
Zr1136     O2542   2.334       .  S
Zr1137     O1139   2.341       .  S
Zr1137     O1152   2.338   1_565  S
Zr1138     O1140   2.343       .  S
Zr1138     O1150   2.336       .  S
O1140     Zr2528   2.342       .  S
C1141      C1317   1.477       .  S
C1142      C1205   1.482       .  S
C1143      C1189   1.486       .  S
C1143      O2512   1.298       .  A
C1144      C1282   1.501       .  S
C1145      C1170   1.487       .  S
C1147      C1346   1.484       .  S
C1147      O2516   1.296   1_455  A
H1149      O2542   0.964       .  S
O1150     Zr2528   2.334       .  S
O1150      H2541   0.964       .  S
C1153      C1154   1.406       .  A
C1153      C1158   1.414       .  A
C1153      H1160   1.072       .  S
C1154      C1155   1.436       .  A
C1155      C1156   1.397       .  A
C1155      C1162   1.524       .  S
C1156      C1157   1.397       .  A
C1156      H1161   1.082       .  S
C1157      C1158   1.421       .  A
C1158      C1159   1.518       .  S
C1159      F1163   1.384       .  S
C1159      F1164   1.383       .  S
C1159      F1165   1.382       .  S
C1162      F2558   1.372       .  S
C1162      F1167   1.383       .  S
C1162      F1168   1.386       .  S
F1166      C2554   1.372   1_455  S
C1169      C1170   1.406       .  A
C1169      C1174   1.416       .  A
C1169      H1176   1.083       .  S
C1170      C1171   1.422       .  A
C1171      C1172   1.398       .  A
C1171      C1178   1.523       .  S
C1172      C1173   1.402       .  A
C1172      H1177   1.084       .  S
C1173      C1174   1.422       .  A
C1174      C1175   1.518       .  S
C1175      F1179   1.385       .  S
C1175      F1180   1.381       .  S
C1175      F1181   1.383       .  S
C1178      F1182   1.382       .  S
C1178      F1183   1.384       .  S
C1178      F1184   1.385       .  S
C1185      C1186   1.405   1_655  A
C1185      C2582   1.398       .  A
C1185      H1192   1.083       .  S
C1186      C1187   1.423       .  A
C1187      C1188   1.417       .  A
C1187      C1194   1.518       .  S
C1188      C2581   1.406   1_455  A
C1188      H2585   1.083       .  S
C1189      C2580   1.406       .  A
C1189      C1190   1.419       .  A
C1190      C2577   1.398       .  A
C1190      C1191   1.523       .  S
C1191      F1891   1.385       .  S
C1191      F1892   1.384       .  S
H1193      C2580   1.083       .  S
C1194      F1198   1.383       .  S
C1194      F1199   1.381       .  S
C1194      F1200   1.385       .  S
F1195      C1887   1.385       .  S
F1196      C1887   1.384   1_565  S
C1201      C1202   1.405   1_455  A
C1201      C1206   1.413       .  A
C1201      H1208   1.083       .  S
C1202      C2595   1.418       .  A
C1203      C2594   1.418       .  A
C1203      C1204   1.400       .  A
C1203      C1210   1.523       .  S
C1204      C1205   1.403       .  A
C1204      H1209   1.084       .  S
C1205      C2598   1.419       .  A
C1206      C2597   1.419   1_455  A
C1206      C1207   1.517       .  S
C1207      F1211   1.384       .  S
C1207      F1213   1.378       .  S
C1210      F1214   1.383       .  S
C1210      F1215   1.381       .  S
C1210      F1216   1.385       .  S
C1217      C1218   1.403       .  A
C1217      C1222   1.410       .  A
C1217      H1224   1.083       .  S
C1218      C2611   1.415       .  A
C1218      C2477   1.486       .  S
C1219      C2610   1.415       .  A
C1219      C2612   1.411       .  A
C1219      C1226   1.517   1_655  S
C1220      C2611   1.411       .  A
C1220      C1221   1.405       .  A
C1220      H2617   1.083       .  S
C1221      C1222   1.416       .  A
C1222      C1223   1.517       .  S
C1223      F1227   1.384       .  S
C1223      F1228   1.382       .  S
C1223      F1229   1.383       .  S
H1225      C2612   1.083       .  S
C1226      F1230   1.383       .  S
C1226      F1231   1.383       .  S
C1226      F1232   1.385       .  S
C1233      C1238   1.398       .  A
C1233      H1240   1.084       .  S
C1234      C1235   1.414       .  A
C1235      C1236   1.412       .  A
C1235      C1242   1.519       .  S
C1236      C1237   1.406       .  A
C1238      C1239   1.516       .  S
C1239      F1243   1.385       .  S
C1239      F1244   1.382       .  S
C1242      F1246   1.384       .  S
C1242      F1247   1.380       .  S
C1249      C1250   1.402       .  A
C1249      C1254   1.411       .  A
C1249      H1256   1.083       .  S
C1250      C1251   1.411       .  A
C1252      H1257   1.082       .  S
C1253      C1254   1.424       .  A
C1254      C1255   1.520       .  S
C1255      F1259   1.385       .  S
C1255      F1260   1.383       .  S
C1258      F1262   1.382       .  S
C1258      F1263   1.383       .  S
C1258      F1264   1.385       .  S
C1265      C1266   1.410       .  A
C1265      C1270   1.396       .  A
C1265      H1272   1.082       .  S
C1266      C1267   1.426       .  A
C1267      C1268   1.407       .  A
C1267      C1274   1.520       .  S
C1268      C1269   1.399       .  A
C1268      H1273   1.076       .  S
C1269      C1270   1.410       .  A
C1270      C1271   1.517       .  S
C1271      F1275   1.385       .  S
C1271      F1276   1.380   1_565  S
C1271      F1277   1.381       .  S
C1274      F1278   1.382       .  S
C1274      F1279   1.382       .  S
C1274      F1280   1.385       .  S
C1281      C1282   1.408       .  A
C1281      C1286   1.416       .  A
C1281      H1288   1.083       .  S
C1282      C1283   1.437       .  A
C1283      C1284   1.392       .  A
C1283      C1290   1.533       .  S
C1284      C1285   1.400       .  A
C1284      H1289   1.080       .  S
C1285      C1286   1.426       .  A
C1286      C1287   1.517       .  S
C1287      F1291   1.377       .  S
C1287      F1292   1.383       .  S
C1287      F1293   1.383       .  S
C1290      F1295   1.372       .  S
C1290      F1296   1.386       .  S
C1297      C1302   1.408       .  A
C1297      H1304   1.083       .  S
C1298      C1299   1.412       .  A
C1299      C1300   1.406       .  A
C1299      C1306   1.516       .  S
C1300      H1305   1.083       .  S
C1301      C1302   1.414       .  A
C1302      C1303   1.517       .  S
C1303      F1307   1.385       .  S
C1303      F1308   1.382       .  S
C1303      F1309   1.383       .  S
C1306      F1310   1.383       .  S
C1306      F1311   1.382       .  S
C1306      F1312   1.384       .  S
C1313      C1314   1.408       .  A
C1313      C1318   1.414       .  A
C1313      H1320   1.082       .  S
C1314      C1315   1.426       .  A
C1315      C1316   1.398       .  A
C1315      C1322   1.519       .  S
C1316      C1317   1.396       .  A
C1316      H1321   1.086       .  S
C1317      C1318   1.419       .  A
C1318      C1319   1.515       .  S
C1319      F1323   1.385       .  S
C1319      F1324   1.374       .  S
C1319      F1325   1.383       .  S
C1322      F1326   1.382       .  S
C1322      F1327   1.382       .  S
C1322      F1328   1.385       .  S
C1329      C1330   1.411       .  A
C1329      C1334   1.405       .  A
C1329      H1336   1.073       .  S
C1330      C1331   1.418       .  A
C1331      C1332   1.407       .  A
C1331      C1338   1.515       .  S
C1332      C1333   1.408       .  A
C1332      H1337   1.085       .  S
C1333      C1334   1.410       .  A
C1334      C1335   1.517       .  S
C1335      F1339   1.384       .  S
C1335      F1340   1.382       .  S
C1335      F1341   1.383       .  S
C1338      F1342   1.383       .  S
C1338      F1343   1.379       .  S
C1338      F1344   1.385       .  S
C1345      C1346   1.400       .  A
C1345      C1350   1.417       .  A
C1345      H2744   1.083   1_455  S
C1346      C1347   1.414       .  A
C1347      C1348   1.397       .  A
C1347      C1354   1.507       .  S
C1348      C1349   1.399       .  A
C1348      H1353   1.083       .  S
C1349      C1350   1.435       .  A
C1350      C1351   1.522       .  S
C1351      F2747   1.384   1_455  S
C1351      F1357   1.382       .  S
H1352      C2737   1.083       .  S
C1354      F1358   1.377       .  S
C1354      F1359   1.383       .  S
C1354      F1360   1.382       .  S
F1355      C2743   1.384       .  S
C1361      C1362   1.394       .  A
C1361      C1366   1.401       .  A
C1361      H1368   1.084       .  S
C1363      C1364   1.411       .  A
C1363      C1370   1.516       .  S
C1364      H1369   1.082       .  S
C1365      C1366   1.435       .  A
C1366      C1367   1.525       .  S
C1367      F1371   1.385       .  S
C1367      F2764   1.381       .  S
C1367      F1373   1.381       .  S
C1370      F1374   1.382       .  S
C1370      F1375   1.383       .  S
C1370      F1376   1.385       .  S
F1372      C2759   1.381       .  S
C1377      C1378   1.405       .  A
C1377      C1382   1.414       .  A
C1377      H1384   1.083       .  S
C1378      C1379   1.419       .  A
C1379      C1380   1.412       .  A
C1379      C1386   1.519       .  S
C1380      C1381   1.407       .  A
C1380      H1385   1.083       .  S
C1381      C1382   1.423       .  A
C1382      C1383   1.519       .  S
C1383      F1387   1.385       .  S
C1383      F1388   1.381       .  S
C1386      F1390   1.383       .  S
C1386      F1391   1.382       .  S
C1386      F1392   1.385       .  S
C1393      C1742   1.409       .  A
C1393      C1398   1.400       .  A
C1393      C2058   1.478       .  S
C1394      C1741   1.409       .  A
C1394      C1395   1.407       .  A
C1394      H1399   1.082       .  S
C1395      C1396   1.408       .  A
C1395      C1729   1.503       .  S
C1396      C1745   1.416       .  A
C1396      H1400   1.083       .  S
C1397      C1744   1.416       .  A
C1397      C1398   1.397       .  A
C1397      C2045   1.502       .  S
C1398      H1401   1.076       .  S
C1402      C1403   1.413       .  A
C1402      C1407   1.405       .  A
C1402      C1662   1.498       .  S
C1403      C1404   1.410       .  A
C1403      H1408   1.083       .  S
C1404      C1405   1.405       .  A
C1404      C1726   1.497       .  S
C1405      C1406   1.409       .  A
C1405      H1409   1.077       .  S
C1406      C1407   1.403       .  A
C1406      C1678   1.502       .  S
C1407      H1410   1.083       .  S
C1411      C1412   1.407       .  A
C1411      C1416   1.410       .  A
C1411      C1614   1.498       .  S
C1412      C1413   1.401       .  A
C1412      H1417   1.077       .  S
C1413      C1414   1.398       .  A
C1413      C1646   1.478       .  S
C1414      C1415   1.409       .  A
C1414      H1418   1.085       .  S
C1415      C1416   1.396       .  A
C1415      C1633   1.502       .  S
C1416      H1419   1.071       .  S
C1420      C1421   1.405       .  A
C1420      C1425   1.400       .  A
C1420      C1598   1.475       .  S
C1421      C1422   1.405       .  A
C1421      H1426   1.083       .  S
C1422      C1423   1.402       .  A
C1422      C1649   1.480   1_545  S
C1423      C1424   1.403       .  A
C1423      H1427   1.085       .  S
C1424      C1425   1.397       .  A
C1424      C1582   1.477       .  S
C1425      H1428   1.084       .  S
C1429      C1430   1.409       .  A
C1429      C1434   1.413       .  A
C1429      C1534   1.498       .  S
C1430      C1431   1.396       .  A
C1430      H1435   1.084       .  S
C1431      C1432   1.400       .  A
C1431      C1550   1.482       .  S
C1432      C1433   1.401       .  A
C1432      H1436   1.084       .  S
C1433      C1434   1.411       .  A
C1434      H1437   1.080       .  S
C1438      C1439   1.411       .  A
C1438      C1443   1.408       .  A
C1438      C1521   1.493       .  S
C1439      C1440   1.408       .  A
C1439      H1444   1.081       .  S
C1440      C1441   1.401       .  A
C1440      C1569   1.488       .  S
C1441      C1442   1.407       .  A
C1441      H1445   1.084       .  S
C1442      C1443   1.399       .  A
C1442      C1505   1.493       .  S
C1443      H1446   1.083       .  S
O1447      C1458   1.298       .  A
O1448      C1459   1.307       .  A
O1448     Zr1482   2.524       .  S
O1449      C1460   1.299       .  A
O1450      C1461   1.297       .  A
O1450     Zr1455   2.471       .  S
O1451      C1461   1.287       .  A
O1451     Zr1485   2.406       .  S
O1452      C1460   1.283       .  A
O1452     Zr2180   2.393       .  S
O1453      C1459   1.275       .  A
O1453     Zr1455   2.369       .  S
O1454      C1458   1.281       .  A
Zr1455     O1456   2.324       .  S
Zr1455     O1465   2.334       .  S
Zr1455     O1463   2.342       .  S
O1456     Zr1482   2.327       .  S
O1456     Zr1485   2.333       .  S
O1457     Zr2180   2.348       .  S
C1458      C1713   1.502       .  S
C1459      C1502   1.508       .  S
C1460      C1617   1.472       .  S
C1461      C1681   1.482       .  S
H1462      O1463   0.965       .  S
O1463     Zr1482   2.332       .  S
H1464      O1465   0.966       .  S
O1465     Zr1483   2.343       .  S
O1465     Zr1485   2.354       .  S
O1466      C1489   1.299       .  A
O1466     Zr2178   2.479       .  S
O1467      C2186   1.295       .  A
O1467     Zr1831   2.461       .  S
O1468     Zr1484   2.473       .  S
O1469      C1492   1.301       .  A
O1469     Zr1485   2.490       .  S
O1470      C1841   1.299       .  A
O1470     Zr1485   2.475   1_556  S
O1471      C2190   1.301       .  A
O1471     Zr1484   2.489       .  S
O1472     Zr1486   2.466       .  S
O1473      C1496   1.292       .  A
O1473     Zr1486   2.450   1_556  S
O1474      C1495   1.289       .  A
O1474     Zr1484   2.423       .  S
O1475      C2192   1.291   1_554  A
O1475     Zr1485   2.419       .  S
O1476      C1491   1.287       .  A
O1476     Zr2178   2.411       .  S
O1477      C1494   1.285   1_556  A
O1478      C1493   1.286       .  A
O1478     Zr1831   2.409       .  S
O1479      C1492   1.274       .  A
O1479     Zr1482   2.375       .  S
O1480      C1489   1.288       .  A
O1480     Zr1486   2.411       .  S
O1481      C1490   1.289       .  A
O1481     Zr1834   2.416       .  S
Zr1482     O2162   2.479       .  S
Zr1482     O2172   2.411       .  S
Zr1482     O2184   2.348       .  S
Zr1482     O1500   2.354       .  S
Zr1483     O1815   2.461   1_554  S
Zr1483     O1826   2.409   1_554  S
Zr1483     O1487   2.338       .  S
Zr1483     O2194   2.344   1_655  S
Zr1484     O2148   2.393   1_545  S
Zr1484     O2153   2.348   1_545  S
Zr1485     O1487   2.341       .  S
Zr1485     O1500   2.338       .  S
Zr1486     O1829   2.416   1_554  S
Zr1486     O2183   2.336   1_545  S
Zr1486     O1488   2.343       .  S
Zr1486     O2196   2.346       .  S
Zr1486     O1498   2.336   1_655  S
O1487     Zr2182   2.336       .  S
O1488     Zr2178   2.348       .  S
C1489      C1665   1.477       .  S
C1490      C1553   1.482       .  S
C1490      O2163   1.295       .  A
C1491      C1537   1.486       .  S
C1492      C1630   1.501       .  S
C1493      C1518   1.487       .  S
C1493      O1818   1.299       .  A
C1494      C2629   1.494   1_554  S
C1494      O2167   1.301       .  A
C1495      C1694   1.484       .  S
C1496      C1949   1.494       .  S
C1496      O2171   1.291   1_546  A
O1498     Zr2179   2.344   1_445  S
H1499      O2196   0.965       .  S
O1500     Zr2182   2.346       .  S
O1500      H2195   0.965       .  S
C1501      C1502   1.406       .  A
C1501      C1506   1.414       .  A
C1501      H1508   1.072       .  S
C1502      C1503   1.436       .  A
C1503      C1504   1.397       .  A
C1503      C1510   1.524       .  S
C1504      C1505   1.397       .  A
C1504      H1509   1.082       .  S
C1505      C1506   1.421       .  A
C1506      C1507   1.518       .  S
C1507      F1511   1.384       .  S
C1507      F1512   1.383       .  S
C1507      F1513   1.382       .  S
C1510      F1515   1.383       .  S
C1510      F1516   1.386   1_655  S
C1517      C1518   1.406       .  A
C1517      C1522   1.416       .  A
C1517      H1524   1.083       .  S
C1518      C1519   1.422       .  A
C1519      C1520   1.398       .  A
C1519      C1526   1.523       .  S
C1520      C1521   1.402       .  A
C1520      H1525   1.084       .  S
C1521      C1522   1.422       .  A
C1522      C1523   1.518       .  S
C1523      F1527   1.385       .  S
C1523      F1528   1.381       .  S
C1523      F1529   1.383       .  S
C1526      F1530   1.382       .  S
C1526      F1531   1.384       .  S
C1526      F1532   1.385       .  S
C1533      C1534   1.405       .  A
C1533      H1540   1.083       .  S
C1534      C1535   1.423       .  A
C1535      C1536   1.417       .  A
C1535      C1542   1.518       .  S
C1537      C1538   1.419       .  A
C1538      C1539   1.523       .  S
C1539      F2241   1.382       .  S
C1542      F1546   1.383       .  S
C1542      F1547   1.381       .  S
C1542      F1548   1.385       .  S
F1545      C2235   1.382       .  S
C1549      C1550   1.405       .  A
C1549      C1554   1.413       .  A
C1549      H1556   1.083       .  S
C1551      C1552   1.400       .  A
C1551      C1558   1.523       .  S
C1552      C1553   1.403       .  A
C1552      H1557   1.084       .  S
C1554      C1555   1.517       .  S
C1555      F1559   1.384       .  S
C1555      F2256   1.382       .  S
C1555      F1561   1.378       .  S
C1558      F1562   1.383       .  S
C1558      F1563   1.381       .  S
C1558      F1564   1.385       .  S
F1560      C2251   1.382       .  S
C1565      C1566   1.403       .  A
C1565      C1570   1.410       .  A
C1565      H1572   1.083       .  S
C1567      C1574   1.517       .  S
C1568      C1569   1.405       .  A
C1569      C1570   1.416       .  A
C1570      C1571   1.517       .  S
C1571      F1575   1.384       .  S
C1571      F1576   1.382       .  S
C1571      F1577   1.383       .  S
C1574      F1578   1.383       .  S
C1574      F1579   1.383       .  S
C1574      F1580   1.385       .  S
C1581      C2278   1.395       .  A
C1581      C1586   1.398       .  A
C1581      H1588   1.084       .  S
C1582      C2277   1.395   1_545  A
C1582      C1583   1.414       .  A
C1583      C1584   1.412       .  A
C1583      C1590   1.519       .  S
C1584      C1585   1.406       .  A
C1584      H1937   1.071       .  S
C1585      C2282   1.426   1_545  A
C1585      C2538   1.494       .  S
C1586      C2281   1.426       .  A
C1586      C1587   1.516       .  S
C1587      F1591   1.385       .  S
C1587      F1592   1.382       .  S
C1587      F1941   1.378       .  S
H1589      C1932   1.071   1_554  S
C1590      F1594   1.384       .  S
C1590      F1595   1.380       .  S
C1590      F1944   1.382       .  S
F1593      C1935   1.378   1_554  S
F1596      C1938   1.382       .  S
C1597      C1598   1.402       .  A
C1597      C1602   1.411       .  A
C1597      H1604   1.083       .  S
C1598      C1599   1.411   1_545  A
C1599      C2296   1.401       .  A
C1599      C2302   1.522       .  S
C1600      C2295   1.401       .  A
C1600      C2297   1.411       .  A
C1600      H1605   1.082       .  S
C1601      C2296   1.411   1_545  A
C1601      C1602   1.424       .  A
C1601      C1844   1.494       .  S
C1602      C1603   1.520       .  S
C1603      F1607   1.385       .  S
C1603      F1608   1.383       .  S
C1603      F1957   1.383       .  S
C1606      C2295   1.522       .  S
C1606      F1610   1.382       .  S
C1606      F1611   1.383       .  S
C1606      F1612   1.385       .  S
F1609      C1951   1.383   1_554  S
C1613      C1614   1.410       .  A
C1613      C1618   1.396       .  A
C1613      H1620   1.082       .  S
C1614      C1615   1.426       .  A
C1615      C1616   1.407       .  A
C1615      C1622   1.520       .  S
C1616      C1617   1.399       .  A
C1616      H1621   1.076       .  S
C1617      C1618   1.410       .  A
C1618      C1619   1.517       .  S
C1619      F1623   1.385       .  S
C1619      F1624   1.380       .  S
C1619      F1625   1.381       .  S
C1622      F1626   1.382       .  S
C1622      F1627   1.382       .  S
C1622      F1628   1.385       .  S
C1629      C1630   1.408       .  A
C1629      C1634   1.416       .  A
C1629      H1636   1.083       .  S
C1630      C1631   1.437       .  A
C1631      C1632   1.392       .  A
C1631      C1638   1.533       .  S
C1632      C1633   1.400       .  A
C1632      H1637   1.080       .  S
C1633      C1634   1.426       .  A
C1634      C1635   1.517       .  S
C1635      F1639   1.377       .  S
C1635      F1640   1.383       .  S
C1635      F1641   1.383       .  S
C1638      F2338   1.378       .  S
C1638      F1643   1.372       .  S
C1638      F1644   1.386       .  S
F1642      C2334   1.378   1_545  S
C1645      C2342   1.404   1_545  A
C1645      C1650   1.408       .  A
C1645      H1652   1.083       .  S
C1646      C2341   1.404       .  A
C1646      C1647   1.412       .  A
C1647      C1648   1.406       .  A
C1647      C1654   1.516       .  S
C1648      C2345   1.405       .  A
C1648      H1653   1.083       .  S
C1649      C2344   1.405       .  A
C1649      C1650   1.414   1_565  A
C1650      C1651   1.517       .  S
C1651      F1655   1.385       .  S
C1651      F1656   1.382       .  S
C1651      F1657   1.383       .  S
C1654      F1658   1.383       .  S
C1654      F1659   1.382       .  S
C1654      F1660   1.384       .  S
C1661      C1662   1.408       .  A
C1661      C1666   1.414       .  A
C1661      H1668   1.082       .  S
C1662      C1663   1.426       .  A
C1663      C1664   1.398       .  A
C1663      C1670   1.519       .  S
C1664      C1665   1.396       .  A
C1664      H1669   1.086       .  S
C1665      C1666   1.419       .  A
C1666      C1667   1.515       .  S
C1667      F1671   1.385       .  S
C1667      F1672   1.374       .  S
C1667      F1673   1.383       .  S
C1670      F1674   1.382       .  S
C1670      F1675   1.382       .  S
C1670      F1676   1.385       .  S
C1677      C1678   1.411       .  A
C1677      C1682   1.405       .  A
C1677      H1684   1.073       .  S
C1678      C1679   1.418       .  A
C1679      C1680   1.407       .  A
C1679      C1686   1.515       .  S
C1680      C1681   1.408       .  A
C1680      H1685   1.085       .  S
C1681      C1682   1.410       .  A
C1682      C1683   1.517       .  S
C1683      F1687   1.384       .  S
C1683      F1688   1.382       .  S
C1683      F1689   1.383       .  S
C1686      F1690   1.383       .  S
C1686      F1691   1.379       .  S
C1686      F1692   1.385       .  S
C1693      C1694   1.400       .  A
C1693      C1698   1.417       .  A
C1694      C1695   1.414       .  A
C1695      C1696   1.397       .  A
C1695      C1702   1.507       .  S
C1696      C1697   1.399       .  A
C1696      H1701   1.083   1_554  S
C1697      C1698   1.435       .  A
C1697      C1745   1.502       .  S
C1698      C1699   1.522       .  S
C1699      F2052   1.382       .  S
C1699      F1705   1.382       .  S
C1702      F1706   1.377   1_554  S
C1702      F1707   1.383       .  S
C1702      F1708   1.382   1_554  S
F1704      C2047   1.382       .  S
C1709      C1710   1.394       .  A
C1709      C1714   1.401       .  A
C1709      H1716   1.084       .  S
C1710      C2059   1.411   1_554  A
C1710      C1741   1.478       .  S
C1711      C2058   1.411       .  A
C1711      C1712   1.411       .  A
C1711      C1718   1.516       .  S
C1712      C2061   1.412       .  A
C1712      H1717   1.082       .  S
C1713      C2060   1.412   1_554  A
C1713      C1714   1.435       .  A
C1714      C1715   1.525       .  S
C1715      F1719   1.385       .  S
C1715      F1721   1.381       .  S
C1718      F1722   1.382       .  S
C1718      F1723   1.383       .  S
C1718      F1724   1.385       .  S
C1725      C1726   1.405       .  A
C1725      C1730   1.414       .  A
C1725      H1732   1.083       .  S
C1726      C1727   1.419       .  A
C1727      C1728   1.412       .  A
C1727      C1734   1.519       .  S
C1728      C1729   1.407       .  A
C1728      H1733   1.083       .  S
C1729      C1730   1.423       .  A
C1730      C1731   1.519   1_554  S
C1731      F1735   1.385       .  S
C1731      F1736   1.381       .  S
C1731      F2085   1.383       .  S
C1734      F1738   1.383       .  S
C1734      F1739   1.382       .  S
C1734      F1740   1.385       .  S
F1737      C2079   1.383       .  S
C1741      C1746   1.400       .  A
C1742      C1743   1.407       .  A
C1742      H1747   1.082       .  S
C1743      C1744   1.408       .  A
C1743      C2077   1.503       .  S
C1744      H1748   1.083       .  S
C1745      C1746   1.397       .  A
C1746      H1749   1.076       .  S
C1750      C1751   1.413       .  A
C1750      C1755   1.405       .  A
C1750      C2010   1.498       .  S
C1751      C1752   1.410       .  A
C1751      H1756   1.083       .  S
C1752      C1753   1.405       .  A
C1752      C2074   1.497       .  S
C1753      C1754   1.409       .  A
C1753      H1757   1.077       .  S
C1754      C1755   1.403       .  A
C1754      C2026   1.502       .  S
C1755      H1758   1.083       .  S
C1759      C1760   1.407       .  A
C1759      C1764   1.410       .  A
C1759      C1962   1.498       .  S
C1760      C1761   1.401       .  A
C1760      H1765   1.077       .  S
C1761      C1762   1.398       .  A
C1761      C1994   1.478       .  S
C1762      C1763   1.409       .  A
C1762      H1766   1.085       .  S
C1763      C1764   1.396       .  A
C1763      C1981   1.502       .  S
C1764      H1767   1.071       .  S
C1768      C1769   1.405       .  A
C1768      C1773   1.400       .  A
C1768      C1946   1.475       .  S
C1769      C1770   1.405       .  A
C1769      H1774   1.083       .  S
C1770      C1771   1.402       .  A
C1770      C1997   1.480   1_545  S
C1771      C1772   1.403       .  A
C1771      H1775   1.085       .  S
C1772      C1773   1.397       .  A
C1772      C1930   1.477       .  S
C1773      H1776   1.084       .  S
C1777      C1778   1.409       .  A
C1777      C1782   1.413       .  A
C1777      C1882   1.498       .  S
C1778      C1779   1.396       .  A
C1778      H1783   1.084       .  S
C1779      C1780   1.400       .  A
C1779      C1898   1.482       .  S
C1780      C1781   1.401       .  A
C1780      H1784   1.084       .  S
C1781      C1782   1.411       .  A
C1782      H1785   1.080       .  S
C1786      C1787   1.411       .  A
C1786      C1791   1.408       .  A
C1786      C1869   1.493       .  S
C1787      C1788   1.408       .  A
C1787      H1792   1.081       .  S
C1788      C1789   1.401       .  A
C1788      C1917   1.488       .  S
C1789      C1790   1.407       .  A
C1789      H1793   1.084       .  S
C1790      C1791   1.399       .  A
C1790      C1853   1.493       .  S
C1791      H1794   1.083       .  S
O1795      C1806   1.298       .  A
O1796      C1807   1.307       .  A
O1796     Zr1830   2.524       .  S
O1797      C1808   1.299       .  A
O1798      C1809   1.297       .  A
O1798     Zr1803   2.471       .  S
O1799      C1809   1.287       .  A
O1799     Zr1833   2.406       .  S
O1800      C1808   1.283       .  A
O1800     Zr2528   2.393       .  S
O1801      C1807   1.275       .  A
O1801     Zr1803   2.369       .  S
O1802      C1806   1.281       .  A
Zr1803     O1804   2.324       .  S
Zr1803     O1813   2.334       .  S
Zr1803     O1811   2.342       .  S
O1804     Zr1830   2.327       .  S
O1804     Zr1833   2.333       .  S
O1805     Zr2528   2.348       .  S
C1806      C2061   1.502       .  S
C1807      C1850   1.508       .  S
C1808      C1965   1.472       .  S
C1809      C2029   1.482       .  S
H1810      O1811   0.965       .  S
O1811     Zr1830   2.332       .  S
H1812      O1813   0.966       .  S
O1813     Zr1831   2.343       .  S
O1813     Zr1833   2.354       .  S
O1814      C1837   1.299       .  A
O1814     Zr2526   2.479       .  S
O1815      C2534   1.295       .  A
O1816     Zr1832   2.473       .  S
O1817      C1840   1.301       .  A
O1817     Zr1833   2.490       .  S
O1818     Zr1833   2.475       .  S
O1819      C2538   1.301       .  A
O1819     Zr1832   2.489       .  S
O1820     Zr1834   2.466       .  S
O1821      C1844   1.292       .  A
O1821     Zr1834   2.450       .  S
O1822      C1843   1.289       .  A
O1822     Zr1832   2.423       .  S
O1823      C2540   1.291       .  A
O1823     Zr1833   2.419       .  S
O1824      C1839   1.287       .  A
O1824     Zr2526   2.411       .  S
O1825      C1842   1.285       .  A
O1826      C1841   1.286       .  A
O1827      C1840   1.274       .  A
O1827     Zr1830   2.375       .  S
O1828      C1837   1.288       .  A
O1828     Zr1834   2.411       .  S
O1829      C1838   1.289       .  A
Zr1830     O2510   2.479       .  S
Zr1830     O2520   2.411       .  S
Zr1830     O2532   2.348       .  S
Zr1830     O1848   2.354       .  S
Zr1831     O1835   2.338       .  S
Zr1831     O2542   2.344   1_655  S
Zr1832     O2496   2.393   1_545  S
Zr1832     O2501   2.348   1_545  S
Zr1833     O1835   2.341       .  S
Zr1833     O1848   2.338       .  S
Zr1834     O2531   2.336   1_545  S
Zr1834     O1836   2.343       .  S
Zr1834     O2544   2.346       .  S
Zr1834     O1846   2.336   1_655  S
O1835     Zr2530   2.336       .  S
O1836     Zr2526   2.348       .  S
C1837      C2013   1.477       .  S
C1838      C1901   1.482       .  S
C1838      O2511   1.295       .  A
C1839      C1885   1.486       .  S
C1840      C1978   1.501       .  S
C1841      C1866   1.487       .  S
C1842      C2281   1.494       .  S
C1842      O2515   1.301       .  A
C1843      C2042   1.484       .  S
C1844      O2519   1.291   1_545  A
O1846     Zr2527   2.344   1_445  S
H1847      O2544   0.965       .  S
O1848     Zr2530   2.346       .  S
O1848      H2543   0.965       .  S
C1849      C1850   1.406       .  A
C1849      C1854   1.414       .  A
C1849      H1856   1.072       .  S
C1850      C1851   1.436       .  A
C1851      C1852   1.397       .  A
C1851      C1858   1.524       .  S
C1852      C1853   1.397       .  A
C1852      H1857   1.082       .  S
C1853      C1854   1.421       .  A
C1854      C1855   1.518       .  S
C1855      F1859   1.384       .  S
C1855      F1860   1.383       .  S
C1855      F1861   1.382       .  S
C1858      F1863   1.383       .  S
C1858      F1864   1.386   1_655  S
C1865      C1866   1.406       .  A
C1865      C1870   1.416       .  A
C1865      H1872   1.083       .  S
C1866      C1867   1.422       .  A
C1867      C1868   1.398       .  A
C1867      C1874   1.523       .  S
C1868      C1869   1.402       .  A
C1868      H1873   1.084       .  S
C1869      C1870   1.422       .  A
C1870      C1871   1.518       .  S
C1871      F1875   1.385       .  S
C1871      F1876   1.381       .  S
C1871      F1877   1.383       .  S
C1874      F1878   1.382       .  S
C1874      F1879   1.384       .  S
C1874      F1880   1.385       .  S
C1881      C1882   1.405       .  A
C1881      H1888   1.083       .  S
C1882      C1883   1.423       .  A
C1883      C1884   1.417       .  A
C1883      C1890   1.518       .  S
C1885      C1886   1.419       .  A
C1886      C1887   1.523       .  S
C1887      F2589   1.382       .  S
C1890      F1894   1.383       .  S
C1890      F1895   1.381       .  S
C1890      F1896   1.385       .  S
F1893      C2583   1.382       .  S
C1897      C1898   1.405       .  A
C1897      C1902   1.413       .  A
C1897      H1904   1.083       .  S
C1899      C1900   1.400       .  A
C1899      C1906   1.523       .  S
C1900      C1901   1.403       .  A
C1900      H1905   1.084       .  S
C1902      C1903   1.517       .  S
C1903      F1907   1.384       .  S
C1903      F2604   1.382       .  S
C1903      F1909   1.378       .  S
C1906      F1910   1.383       .  S
C1906      F1911   1.381       .  S
C1906      F1912   1.385       .  S
F1908      C2599   1.382       .  S
C1913      C1914   1.403       .  A
C1913      C1918   1.410       .  A
C1913      H1920   1.083       .  S
C1915      C1922   1.517       .  S
C1916      C1917   1.405       .  A
C1917      C1918   1.416       .  A
C1918      C1919   1.517       .  S
C1919      F1923   1.384       .  S
C1919      F1924   1.382       .  S
C1919      F1925   1.383       .  S
C1922      F1926   1.383       .  S
C1922      F1927   1.383       .  S
C1922      F1928   1.385       .  S
C1929      C2626   1.395       .  A
C1929      C1934   1.398       .  A
C1929      H1936   1.084       .  S
C1930      C2625   1.395   1_545  A
C1930      C1931   1.414       .  A
C1931      C1932   1.412       .  A
C1931      C1938   1.519       .  S
C1932      C1933   1.406       .  A
C1933      C2630   1.426   1_545  A
C1933      C2190   1.494   1_556  S
C1934      C2629   1.426       .  A
C1934      C1935   1.516       .  S
C1935      F1939   1.385       .  S
C1935      F1940   1.382       .  S
C1938      F1942   1.384       .  S
C1938      F1943   1.380       .  S
C1945      C1946   1.402       .  A
C1945      C1950   1.411       .  A
C1945      H1952   1.083       .  S
C1946      C1947   1.411   1_545  A
C1947      C2644   1.401       .  A
C1947      C2650   1.522       .  S
C1948      C2643   1.401       .  A
C1948      C2645   1.411       .  A
C1948      H1953   1.082       .  S
C1949      C2644   1.411   1_545  A
C1949      C1950   1.424       .  A
C1950      C1951   1.520       .  S
C1951      F1955   1.385       .  S
C1951      F1956   1.383       .  S
C1954      C2643   1.522       .  S
C1954      F1958   1.382       .  S
C1954      F1959   1.383       .  S
C1954      F1960   1.385       .  S
C1961      C1962   1.410       .  A
C1961      C1966   1.396       .  A
C1961      H1968   1.082       .  S
C1962      C1963   1.426       .  A
C1963      C1964   1.407       .  A
C1963      C1970   1.520       .  S
C1964      C1965   1.399       .  A
C1964      H1969   1.076       .  S
C1965      C1966   1.410       .  A
C1966      C1967   1.517       .  S
C1967      F1971   1.385       .  S
C1967      F1972   1.380       .  S
C1967      F1973   1.381       .  S
C1970      F1974   1.382       .  S
C1970      F1975   1.382       .  S
C1970      F1976   1.385       .  S
C1977      C1978   1.408       .  A
C1977      C1982   1.416       .  A
C1977      H1984   1.083       .  S
C1978      C1979   1.437       .  A
C1979      C1980   1.392       .  A
C1979      C1986   1.533       .  S
C1980      C1981   1.400       .  A
C1980      H1985   1.080       .  S
C1981      C1982   1.426       .  A
C1982      C1983   1.517       .  S
C1983      F1987   1.377       .  S
C1983      F1988   1.383       .  S
C1983      F1989   1.383       .  S
C1986      F2686   1.378       .  S
C1986      F1991   1.372       .  S
C1986      F1992   1.386       .  S
F1990      C2682   1.378   1_545  S
C1993      C2690   1.404   1_545  A
C1993      C1998   1.408       .  A
C1993      H2000   1.083       .  S
C1994      C2689   1.404       .  A
C1994      C1995   1.412       .  A
C1995      C1996   1.406       .  A
C1995      C2002   1.516       .  S
C1996      C2693   1.405       .  A
C1996      H2001   1.083       .  S
C1997      C2692   1.405       .  A
C1997      C1998   1.414   1_565  A
C1998      C1999   1.517       .  S
C1999      F2003   1.385       .  S
C1999      F2004   1.382       .  S
C1999      F2005   1.383       .  S
C2002      F2006   1.383       .  S
C2002      F2007   1.382       .  S
C2002      F2008   1.384       .  S
C2009      C2010   1.408       .  A
C2009      C2014   1.414       .  A
C2009      H2016   1.082       .  S
C2010      C2011   1.426       .  A
C2011      C2012   1.398       .  A
C2011      C2018   1.519       .  S
C2012      C2013   1.396       .  A
C2012      H2017   1.086       .  S
C2013      C2014   1.419       .  A
C2014      C2015   1.515       .  S
C2015      F2019   1.385       .  S
C2015      F2020   1.374       .  S
C2015      F2021   1.383       .  S
C2018      F2022   1.382       .  S
C2018      F2023   1.382       .  S
C2018      F2024   1.385       .  S
C2025      C2026   1.411       .  A
C2025      C2030   1.405       .  A
C2025      H2032   1.073       .  S
C2026      C2027   1.418       .  A
C2027      C2028   1.407       .  A
C2027      C2034   1.515       .  S
C2028      C2029   1.408       .  A
C2028      H2033   1.085       .  S
C2029      C2030   1.410       .  A
C2030      C2031   1.517       .  S
C2031      F2035   1.384       .  S
C2031      F2036   1.382       .  S
C2031      F2037   1.383       .  S
C2034      F2038   1.383       .  S
C2034      F2039   1.379       .  S
C2034      F2040   1.385       .  S
C2041      C2042   1.400       .  A
C2041      C2046   1.417       .  A
C2042      C2043   1.414       .  A
C2043      C2044   1.397       .  A
C2043      C2050   1.507       .  S
C2044      C2045   1.399       .  A
C2044      H2049   1.083       .  S
C2045      C2046   1.435       .  A
C2046      C2047   1.522       .  S
C2047      F2053   1.382       .  S
C2050      F2054   1.377       .  S
C2050      F2055   1.383       .  S
C2050      F2056   1.382       .  S
C2057      C2058   1.394       .  A
C2057      C2062   1.401       .  A
C2057      H2064   1.084       .  S
C2059      C2060   1.411       .  A
C2059      C2066   1.516       .  S
C2060      H2065   1.082       .  S
C2061      C2062   1.435       .  A
C2062      C2063   1.525       .  S
C2063      F2067   1.385       .  S
C2063      F2069   1.381       .  S
C2066      F2070   1.382       .  S
C2066      F2071   1.383       .  S
C2066      F2072   1.385       .  S
C2073      C2074   1.405       .  A
C2073      C2078   1.414       .  A
C2073      H2080   1.083       .  S
C2074      C2075   1.419       .  A
C2075      C2076   1.412       .  A
C2075      C2082   1.519       .  S
C2076      C2077   1.407       .  A
C2076      H2081   1.083       .  S
C2077      C2078   1.423       .  A
C2078      C2079   1.519       .  S
C2079      F2083   1.385       .  S
C2079      F2084   1.381       .  S
C2082      F2086   1.383       .  S
C2082      F2087   1.382       .  S
C2082      F2088   1.385       .  S
C2089      C2438   1.409       .  A
C2089      C2094   1.400       .  A
C2089      C2754   1.478       .  S
C2090      C2437   1.409       .  A
C2090      C2091   1.407       .  A
C2090      H2095   1.082       .  S
C2091      C2092   1.408       .  A
C2091      C2425   1.503       .  S
C2092      C2441   1.416       .  A
C2092      H2096   1.083       .  S
C2093      C2440   1.416       .  A
C2093      C2094   1.397       .  A
C2093      C2741   1.502       .  S
C2094      H2097   1.076       .  S
C2098      C2099   1.413       .  A
C2098      C2103   1.405       .  A
C2098      C2358   1.498       .  S
C2099      C2100   1.410       .  A
C2099      H2104   1.083       .  S
C2100      C2101   1.405       .  A
C2100      C2422   1.497       .  S
C2101      C2102   1.409       .  A
C2101      H2105   1.077       .  S
C2102      C2103   1.403       .  A
C2102      C2374   1.502       .  S
C2103      H2106   1.083       .  S
C2107      C2108   1.407       .  A
C2107      C2112   1.410       .  A
C2107      C2310   1.498       .  S
C2108      C2109   1.401       .  A
C2108      H2113   1.077       .  S
C2109      C2110   1.398       .  A
C2109      C2342   1.478       .  S
C2110      C2111   1.409       .  A
C2110      H2114   1.085       .  S
C2111      C2112   1.396       .  A
C2111      C2329   1.502       .  S
C2112      H2115   1.071       .  S
C2116      C2117   1.405       .  A
C2116      C2121   1.400       .  A
C2116      C2294   1.475       .  S
C2117      C2118   1.405       .  A
C2117      H2122   1.083       .  S
C2118      C2119   1.402       .  A
C2118      C2345   1.480       .  S
C2119      C2120   1.403       .  A
C2119      H2123   1.085       .  S
C2120      C2121   1.397       .  A
C2120      C2278   1.477       .  S
C2121      H2124   1.084       .  S
C2125      C2126   1.409       .  A
C2125      C2130   1.413       .  A
C2125      C2230   1.498       .  S
C2126      C2127   1.396       .  A
C2126      H2131   1.084       .  S
C2127      C2128   1.400       .  A
C2127      C2246   1.482       .  S
C2128      C2129   1.401       .  A
C2128      H2132   1.084       .  S
C2129      C2130   1.411       .  A
C2130      H2133   1.080       .  S
C2134      C2135   1.411       .  A
C2134      C2139   1.408       .  A
C2134      C2217   1.493       .  S
C2135      C2136   1.408       .  A
C2135      H2140   1.081       .  S
C2136      C2137   1.401       .  A
C2136      C2265   1.488       .  S
C2137      C2138   1.407       .  A
C2137      H2141   1.084       .  S
C2138      C2139   1.399       .  A
C2138      C2201   1.493       .  S
C2139      H2142   1.083       .  S
O2143      C2154   1.298       .  A
O2144      C2155   1.307       .  A
O2144     Zr2178   2.524   1_565  S
O2145      C2156   1.299       .  A
O2146      C2157   1.297       .  A
O2146     Zr2151   2.471       .  S
O2147      C2157   1.287       .  A
O2147     Zr2181   2.406       .  S
O2148      C2156   1.283       .  A
O2149      C2155   1.275       .  A
O2149     Zr2151   2.369       .  S
O2150      C2154   1.281       .  A
Zr2151     O2152   2.324       .  S
Zr2151     O2161   2.334       .  S
Zr2151     O2159   2.342       .  S
O2152     Zr2178   2.327   1_565  S
O2152     Zr2181   2.333       .  S
C2154      C2409   1.502       .  S
C2155      C2198   1.508       .  S
C2156      C2313   1.472       .  S
C2157      C2377   1.482       .  S
H2158      O2159   0.965       .  S
O2159     Zr2178   2.332   1_565  S
H2160      O2161   0.966       .  S
O2161     Zr2179   2.343       .  S
O2161     Zr2181   2.354       .  S
O2162      C2185   1.299       .  A
O2163     Zr2527   2.461   1_545  S
O2164     Zr2180   2.473       .  S
O2165      C2188   1.301       .  A
O2165     Zr2181   2.490       .  S
O2166      C2537   1.299       .  A
O2166     Zr2181   2.475   1_556  S
O2167     Zr2180   2.489       .  S
O2168     Zr2182   2.466       .  S
O2169      C2192   1.292       .  A
O2169     Zr2182   2.450   1_556  S
O2170      C2191   1.289       .  A
O2170     Zr2180   2.423       .  S
O2171     Zr2181   2.419       .  S
O2172      C2187   1.287       .  A
O2173      C2190   1.285   1_566  A
O2174      C2189   1.286       .  A
O2174     Zr2527   2.409       .  S
O2175      C2188   1.274       .  A
O2175     Zr2178   2.375   1_565  S
O2176      C2185   1.288       .  A
O2176     Zr2182   2.411       .  S
O2177      C2186   1.289       .  A
O2177     Zr2530   2.416       .  S
Zr2178     O2196   2.354       .  S
Zr2179     O2511   2.461   1_564  S
Zr2179     O2522   2.409   1_554  S
Zr2179     O2183   2.338       .  S
Zr2181     O2183   2.341       .  S
Zr2181     O2196   2.338   1_565  S
Zr2182     O2525   2.416   1_554  S
Zr2182     O2184   2.343       .  S
Zr2182     O2194   2.336   1_655  S
C2185      C2361   1.477       .  S
C2186      C2249   1.482       .  S
C2187      C2233   1.486       .  S
C2188      C2326   1.501       .  S
C2189      C2214   1.487       .  S
C2189      O2514   1.299       .  A
C2191      C2390   1.484       .  S
C2192      C2645   1.494       .  S
C2197      C2198   1.406       .  A
C2197      C2202   1.414       .  A
C2197      H2204   1.072       .  S
C2198      C2199   1.436       .  A
C2199      C2200   1.397       .  A
C2199      C2206   1.524       .  S
C2200      C2201   1.397       .  A
C2200      H2205   1.082       .  S
C2201      C2202   1.421       .  A
C2202      C2203   1.518       .  S
C2203      F2207   1.384       .  S
C2203      F2208   1.383       .  S
C2203      F2209   1.382       .  S
C2206      F2211   1.383       .  S
C2206      F2212   1.386   1_655  S
C2213      C2214   1.406       .  A
C2213      C2218   1.416       .  A
C2213      H2220   1.083       .  S
C2214      C2215   1.422       .  A
C2215      C2216   1.398       .  A
C2215      C2222   1.523       .  S
C2216      C2217   1.402       .  A
C2216      H2221   1.084       .  S
C2217      C2218   1.422       .  A
C2218      C2219   1.518       .  S
C2219      F2223   1.385       .  S
C2219      F2224   1.381       .  S
C2219      F2225   1.383       .  S
C2222      F2226   1.382       .  S
C2222      F2227   1.384       .  S
C2222      F2228   1.385       .  S
C2229      C2230   1.405       .  A
C2229      H2236   1.083       .  S
C2230      C2231   1.423       .  A
C2231      C2232   1.417       .  A
C2231      C2238   1.518       .  S
C2233      C2234   1.419       .  A
C2234      C2235   1.523       .  S
C2238      F2242   1.383       .  S
C2238      F2243   1.381       .  S
C2238      F2244   1.385       .  S
C2245      C2246   1.405       .  A
C2245      C2250   1.413       .  A
C2245      H2252   1.083       .  S
C2247      C2248   1.400       .  A
C2247      C2254   1.523       .  S
C2248      C2249   1.403       .  A
C2248      H2253   1.084       .  S
C2250      C2251   1.517       .  S
C2251      F2255   1.384       .  S
C2251      F2257   1.378       .  S
C2254      F2258   1.383       .  S
C2254      F2259   1.381       .  S
C2254      F2260   1.385       .  S
C2261      C2262   1.403       .  A
C2261      C2266   1.410       .  A
C2261      H2268   1.083       .  S
C2263      C2270   1.517       .  S
C2264      C2265   1.405       .  A
C2265      C2266   1.416       .  A
C2266      C2267   1.517       .  S
C2267      F2271   1.384       .  S
C2267      F2272   1.382       .  S
C2267      F2273   1.383       .  S
C2270      F2274   1.383       .  S
C2270      F2275   1.383       .  S
C2270      F2276   1.385       .  S
C2277      C2282   1.398       .  A
C2277      H2284   1.084       .  S
C2278      C2279   1.414       .  A
C2279      C2280   1.412       .  A
C2279      C2286   1.519       .  S
C2280      C2281   1.406       .  A
C2280      H2633   1.071       .  S
C2282      C2283   1.516       .  S
C2283      F2287   1.385       .  S
C2283      F2288   1.382       .  S
C2283      F2637   1.378       .  S
H2285      C2628   1.071   1_554  S
C2286      F2290   1.384       .  S
C2286      F2291   1.380       .  S
C2286      F2640   1.382       .  S
F2289      C2631   1.378   1_554  S
F2292      C2634   1.382       .  S
C2293      C2294   1.402       .  A
C2293      C2298   1.411       .  A
C2293      H2300   1.083       .  S
C2294      C2295   1.411       .  A
C2296      H2301   1.082       .  S
C2297      C2298   1.424       .  A
C2297      C2540   1.494       .  S
C2298      C2299   1.520       .  S
C2299      F2303   1.385       .  S
C2299      F2304   1.383       .  S
C2299      F2653   1.383       .  S
C2302      F2306   1.382       .  S
C2302      F2307   1.383       .  S
C2302      F2308   1.385       .  S
F2305      C2647   1.383   1_554  S
C2309      C2310   1.410       .  A
C2309      C2314   1.396       .  A
C2309      H2316   1.082       .  S
C2310      C2311   1.426       .  A
C2311      C2312   1.407       .  A
C2311      C2318   1.520       .  S
C2312      C2313   1.399       .  A
C2312      H2317   1.076       .  S
C2313      C2314   1.410       .  A
C2314      C2315   1.517       .  S
C2315      F2319   1.385       .  S
C2315      F2320   1.380   1_565  S
C2315      F2321   1.381       .  S
C2318      F2322   1.382       .  S
C2318      F2323   1.382       .  S
C2318      F2324   1.385       .  S
C2325      C2326   1.408       .  A
C2325      C2330   1.416       .  A
C2325      H2332   1.083       .  S
C2326      C2327   1.437       .  A
C2327      C2328   1.392       .  A
C2327      C2334   1.533       .  S
C2328      C2329   1.400       .  A
C2328      H2333   1.080       .  S
C2329      C2330   1.426       .  A
C2330      C2331   1.517       .  S
C2331      F2335   1.377       .  S
C2331      F2336   1.383       .  S
C2331      F2337   1.383       .  S
C2334      F2339   1.372       .  S
C2334      F2340   1.386       .  S
C2341      C2346   1.408       .  A
C2341      H2348   1.083       .  S
C2342      C2343   1.412       .  A
C2343      C2344   1.406       .  A
C2343      C2350   1.516       .  S
C2344      H2349   1.083       .  S
C2345      C2346   1.414       .  A
C2346      C2347   1.517       .  S
C2347      F2351   1.385       .  S
C2347      F2352   1.382       .  S
C2347      F2353   1.383       .  S
C2350      F2354   1.383       .  S
C2350      F2355   1.382       .  S
C2350      F2356   1.384       .  S
C2357      C2358   1.408       .  A
C2357      C2362   1.414       .  A
C2357      H2364   1.082       .  S
C2358      C2359   1.426       .  A
C2359      C2360   1.398       .  A
C2359      C2366   1.519       .  S
C2360      C2361   1.396       .  A
C2360      H2365   1.086       .  S
C2361      C2362   1.419       .  A
C2362      C2363   1.515       .  S
C2363      F2367   1.385       .  S
C2363      F2368   1.374       .  S
C2363      F2369   1.383       .  S
C2366      F2370   1.382       .  S
C2366      F2371   1.382       .  S
C2366      F2372   1.385       .  S
C2373      C2374   1.411       .  A
C2373      C2378   1.405       .  A
C2373      H2380   1.073       .  S
C2374      C2375   1.418       .  A
C2375      C2376   1.407       .  A
C2375      C2382   1.515       .  S
C2376      C2377   1.408       .  A
C2376      H2381   1.085       .  S
C2377      C2378   1.410       .  A
C2378      C2379   1.517       .  S
C2379      F2383   1.384       .  S
C2379      F2384   1.382       .  S
C2379      F2385   1.383       .  S
C2382      F2386   1.383       .  S
C2382      F2387   1.379       .  S
C2382      F2388   1.385       .  S
C2389      C2390   1.400       .  A
C2389      C2394   1.417       .  A
C2390      C2391   1.414       .  A
C2391      C2392   1.397       .  A
C2391      C2398   1.507       .  S
C2392      C2393   1.399       .  A
C2392      H2397   1.083   1_554  S
C2393      C2394   1.435       .  A
C2393      C2441   1.502       .  S
C2394      C2395   1.522       .  S
C2395      F2748   1.382       .  S
C2395      F2401   1.382       .  S
C2398      F2402   1.377   1_554  S
C2398      F2403   1.383       .  S
C2398      F2404   1.382   1_554  S
F2400      C2743   1.382       .  S
C2405      C2406   1.394       .  A
C2405      C2410   1.401       .  A
C2405      H2412   1.084       .  S
C2406      C2755   1.411   1_554  A
C2406      C2437   1.478       .  S
C2407      C2754   1.411       .  A
C2407      C2408   1.411       .  A
C2407      C2414   1.516       .  S
C2408      C2757   1.412       .  A
C2408      H2413   1.082       .  S
C2409      C2756   1.412   1_554  A
C2409      C2410   1.435       .  A
C2410      C2411   1.525       .  S
C2411      F2415   1.385       .  S
C2411      F2417   1.381       .  S
C2414      F2418   1.382       .  S
C2414      F2419   1.383       .  S
C2414      F2420   1.385       .  S
C2421      C2422   1.405       .  A
C2421      C2426   1.414       .  A
C2421      H2428   1.083       .  S
C2422      C2423   1.419       .  A
C2423      C2424   1.412       .  A
C2423      C2430   1.519       .  S
C2424      C2425   1.407       .  A
C2424      H2429   1.083       .  S
C2425      C2426   1.423       .  A
C2426      C2427   1.519   1_554  S
C2427      F2431   1.385       .  S
C2427      F2432   1.381       .  S
C2427      F2781   1.383       .  S
C2430      F2434   1.383       .  S
C2430      F2435   1.382       .  S
C2430      F2436   1.385       .  S
F2433      C2775   1.383       .  S
C2437      C2442   1.400       .  A
C2438      C2439   1.407       .  A
C2438      H2443   1.082       .  S
C2439      C2440   1.408       .  A
C2439      C2773   1.503       .  S
C2440      H2444   1.083       .  S
C2441      C2442   1.397       .  A
C2442      H2445   1.076       .  S
C2446      C2447   1.413       .  A
C2446      C2451   1.405       .  A
C2446      C2706   1.498       .  S
C2447      C2448   1.410       .  A
C2447      H2452   1.083       .  S
C2448      C2449   1.405       .  A
C2448      C2770   1.497       .  S
C2449      C2450   1.409       .  A
C2449      H2453   1.077       .  S
C2450      C2451   1.403       .  A
C2450      C2722   1.502       .  S
C2451      H2454   1.083       .  S
C2455      C2456   1.407       .  A
C2455      C2460   1.410       .  A
C2455      C2658   1.498       .  S
C2456      C2457   1.401       .  A
C2456      H2461   1.077       .  S
C2457      C2458   1.398       .  A
C2457      C2690   1.478       .  S
C2458      C2459   1.409       .  A
C2458      H2462   1.085       .  S
C2459      C2460   1.396       .  A
C2459      C2677   1.502       .  S
C2460      H2463   1.071       .  S
C2464      C2465   1.405       .  A
C2464      C2469   1.400       .  A
C2464      C2642   1.475       .  S
C2465      C2466   1.405       .  A
C2465      H2470   1.083       .  S
C2466      C2467   1.402       .  A
C2466      C2693   1.480       .  S
C2467      C2468   1.403       .  A
C2467      H2471   1.085       .  S
C2468      C2469   1.397       .  A
C2468      C2626   1.477       .  S
C2469      H2472   1.084       .  S
C2473      C2474   1.409       .  A
C2473      C2478   1.413       .  A
C2473      C2578   1.498       .  S
C2474      C2475   1.396       .  A
C2474      H2479   1.084       .  S
C2475      C2476   1.400       .  A
C2475      C2594   1.482       .  S
C2476      C2477   1.401       .  A
C2476      H2480   1.084       .  S
C2477      C2478   1.411       .  A
C2478      H2481   1.080       .  S
C2482      C2483   1.411       .  A
C2482      C2487   1.408       .  A
C2482      C2565   1.493       .  S
C2483      C2484   1.408       .  A
C2483      H2488   1.081       .  S
C2484      C2485   1.401       .  A
C2484      C2613   1.488       .  S
C2485      C2486   1.407       .  A
C2485      H2489   1.084       .  S
C2486      C2487   1.399       .  A
C2486      C2549   1.493       .  S
C2487      H2490   1.083       .  S
O2491      C2502   1.298       .  A
O2492      C2503   1.307       .  A
O2492     Zr2526   2.524   1_565  S
O2493      C2504   1.299       .  A
O2494      C2505   1.297       .  A
O2494     Zr2499   2.471       .  S
O2495      C2505   1.287       .  A
O2495     Zr2529   2.406       .  S
O2496      C2504   1.283       .  A
O2497      C2503   1.275       .  A
O2497     Zr2499   2.369       .  S
O2498      C2502   1.281       .  A
Zr2499     O2500   2.324       .  S
Zr2499     O2509   2.334       .  S
Zr2499     O2507   2.342       .  S
O2500     Zr2526   2.327   1_565  S
O2500     Zr2529   2.333       .  S
C2502      C2757   1.502       .  S
C2503      C2546   1.508       .  S
C2504      C2661   1.472       .  S
C2505      C2725   1.482       .  S
H2506      O2507   0.965       .  S
O2507     Zr2526   2.332   1_565  S
H2508      O2509   0.966       .  S
O2509     Zr2527   2.343       .  S
O2509     Zr2529   2.354       .  S
O2510      C2533   1.299       .  A
O2512     Zr2528   2.473       .  S
O2513      C2536   1.301       .  A
O2513     Zr2529   2.490       .  S
O2514     Zr2529   2.475       .  S
O2515     Zr2528   2.489       .  S
O2516     Zr2530   2.466       .  S
O2517      C2540   1.292       .  A
O2517     Zr2530   2.450       .  S
O2518      C2539   1.289       .  A
O2518     Zr2528   2.423       .  S
O2519     Zr2529   2.419       .  S
O2520      C2535   1.287       .  A
O2521      C2538   1.285   1_565  A
O2522      C2537   1.286       .  A
O2523      C2536   1.274       .  A
O2523     Zr2526   2.375   1_565  S
O2524      C2533   1.288       .  A
O2524     Zr2530   2.411       .  S
O2525      C2534   1.289       .  A
Zr2526     O2544   2.354       .  S
Zr2527     O2531   2.338       .  S
Zr2529     O2531   2.341       .  S
Zr2529     O2544   2.338   1_565  S
Zr2530     O2532   2.343       .  S
Zr2530     O2542   2.336   1_655  S
C2533      C2709   1.477       .  S
C2534      C2597   1.482       .  S
C2535      C2581   1.486       .  S
C2536      C2674   1.501       .  S
C2537      C2562   1.487       .  S
C2539      C2738   1.484       .  S
C2545      C2546   1.406       .  A
C2545      C2550   1.414       .  A
C2545      H2552   1.072       .  S
C2546      C2547   1.436       .  A
C2547      C2548   1.397       .  A
C2547      C2554   1.524       .  S
C2548      C2549   1.397       .  A
C2548      H2553   1.082       .  S
C2549      C2550   1.421       .  A
C2550      C2551   1.518       .  S
C2551      F2555   1.384       .  S
C2551      F2556   1.383       .  S
C2551      F2557   1.382       .  S
C2554      F2559   1.383       .  S
C2554      F2560   1.386   1_655  S
C2561      C2562   1.406       .  A
C2561      C2566   1.416       .  A
C2561      H2568   1.083       .  S
C2562      C2563   1.422       .  A
C2563      C2564   1.398       .  A
C2563      C2570   1.523       .  S
C2564      C2565   1.402       .  A
C2564      H2569   1.084       .  S
C2565      C2566   1.422       .  A
C2566      C2567   1.518       .  S
C2567      F2571   1.385       .  S
C2567      F2572   1.381       .  S
C2567      F2573   1.383       .  S
C2570      F2574   1.382       .  S
C2570      F2575   1.384       .  S
C2570      F2576   1.385       .  S
C2577      C2578   1.405       .  A
C2577      H2584   1.083       .  S
C2578      C2579   1.423       .  A
C2579      C2580   1.417       .  A
C2579      C2586   1.518       .  S
C2581      C2582   1.419       .  A
C2582      C2583   1.523       .  S
C2586      F2590   1.383       .  S
C2586      F2591   1.381       .  S
C2586      F2592   1.385       .  S
C2593      C2594   1.405       .  A
C2593      C2598   1.413       .  A
C2593      H2600   1.083       .  S
C2595      C2596   1.400       .  A
C2595      C2602   1.523       .  S
C2596      C2597   1.403       .  A
C2596      H2601   1.084       .  S
C2598      C2599   1.517       .  S
C2599      F2603   1.384       .  S
C2599      F2605   1.378       .  S
C2602      F2606   1.383       .  S
C2602      F2607   1.381       .  S
C2602      F2608   1.385       .  S
C2609      C2610   1.403       .  A
C2609      C2614   1.410       .  A
C2609      H2616   1.083       .  S
C2611      C2618   1.517       .  S
C2612      C2613   1.405       .  A
C2613      C2614   1.416       .  A
C2614      C2615   1.517       .  S
C2615      F2619   1.384       .  S
C2615      F2620   1.382       .  S
C2615      F2621   1.383       .  S
C2618      F2622   1.383       .  S
C2618      F2623   1.383       .  S
C2618      F2624   1.385       .  S
C2625      C2630   1.398       .  A
C2625      H2632   1.084       .  S
C2626      C2627   1.414       .  A
C2627      C2628   1.412       .  A
C2627      C2634   1.519       .  S
C2628      C2629   1.406       .  A
C2630      C2631   1.516       .  S
C2631      F2635   1.385       .  S
C2631      F2636   1.382       .  S
C2634      F2638   1.384       .  S
C2634      F2639   1.380       .  S
C2641      C2642   1.402       .  A
C2641      C2646   1.411       .  A
C2641      H2648   1.083       .  S
C2642      C2643   1.411       .  A
C2644      H2649   1.082       .  S
C2645      C2646   1.424       .  A
C2646      C2647   1.520       .  S
C2647      F2651   1.385       .  S
C2647      F2652   1.383       .  S
C2650      F2654   1.382       .  S
C2650      F2655   1.383       .  S
C2650      F2656   1.385       .  S
C2657      C2658   1.410       .  A
C2657      C2662   1.396       .  A
C2657      H2664   1.082       .  S
C2658      C2659   1.426       .  A
C2659      C2660   1.407       .  A
C2659      C2666   1.520       .  S
C2660      C2661   1.399       .  A
C2660      H2665   1.076       .  S
C2661      C2662   1.410       .  A
C2662      C2663   1.517       .  S
C2663      F2667   1.385       .  S
C2663      F2668   1.380   1_565  S
C2663      F2669   1.381       .  S
C2666      F2670   1.382       .  S
C2666      F2671   1.382       .  S
C2666      F2672   1.385       .  S
C2673      C2674   1.408       .  A
C2673      C2678   1.416       .  A
C2673      H2680   1.083       .  S
C2674      C2675   1.437       .  A
C2675      C2676   1.392       .  A
C2675      C2682   1.533       .  S
C2676      C2677   1.400       .  A
C2676      H2681   1.080       .  S
C2677      C2678   1.426       .  A
C2678      C2679   1.517       .  S
C2679      F2683   1.377       .  S
C2679      F2684   1.383       .  S
C2679      F2685   1.383       .  S
C2682      F2687   1.372       .  S
C2682      F2688   1.386       .  S
C2689      C2694   1.408       .  A
C2689      H2696   1.083       .  S
C2690      C2691   1.412       .  A
C2691      C2692   1.406       .  A
C2691      C2698   1.516       .  S
C2692      H2697   1.083       .  S
C2693      C2694   1.414       .  A
C2694      C2695   1.517       .  S
C2695      F2699   1.385       .  S
C2695      F2700   1.382       .  S
C2695      F2701   1.383       .  S
C2698      F2702   1.383       .  S
C2698      F2703   1.382       .  S
C2698      F2704   1.384       .  S
C2705      C2706   1.408       .  A
C2705      C2710   1.414       .  A
C2705      H2712   1.082       .  S
C2706      C2707   1.426       .  A
C2707      C2708   1.398       .  A
C2707      C2714   1.519       .  S
C2708      C2709   1.396       .  A
C2708      H2713   1.086       .  S
C2709      C2710   1.419       .  A
C2710      C2711   1.515       .  S
C2711      F2715   1.385       .  S
C2711      F2716   1.374       .  S
C2711      F2717   1.383       .  S
C2714      F2718   1.382       .  S
C2714      F2719   1.382       .  S
C2714      F2720   1.385       .  S
C2721      C2722   1.411       .  A
C2721      C2726   1.405       .  A
C2721      H2728   1.073       .  S
C2722      C2723   1.418       .  A
C2723      C2724   1.407       .  A
C2723      C2730   1.515       .  S
C2724      C2725   1.408       .  A
C2724      H2729   1.085       .  S
C2725      C2726   1.410       .  A
C2726      C2727   1.517       .  S
C2727      F2731   1.384       .  S
C2727      F2732   1.382       .  S
C2727      F2733   1.383       .  S
C2730      F2734   1.383       .  S
C2730      F2735   1.379       .  S
C2730      F2736   1.385       .  S
C2737      C2738   1.400       .  A
C2737      C2742   1.417       .  A
C2738      C2739   1.414       .  A
C2739      C2740   1.397       .  A
C2739      C2746   1.507       .  S
C2740      C2741   1.399       .  A
C2740      H2745   1.083       .  S
C2741      C2742   1.435       .  A
C2742      C2743   1.522       .  S
C2743      F2749   1.382       .  S
C2746      F2750   1.377       .  S
C2746      F2751   1.383       .  S
C2746      F2752   1.382       .  S
C2753      C2754   1.394       .  A
C2753      C2758   1.401       .  A
C2753      H2760   1.084       .  S
C2755      C2756   1.411       .  A
C2755      C2762   1.516       .  S
C2756      H2761   1.082       .  S
C2757      C2758   1.435       .  A
C2758      C2759   1.525       .  S
C2759      F2763   1.385       .  S
C2759      F2765   1.381       .  S
C2762      F2766   1.382       .  S
C2762      F2767   1.383       .  S
C2762      F2768   1.385       .  S
C2769      C2770   1.405       .  A
C2769      C2774   1.414       .  A
C2769      H2776   1.083       .  S
C2770      C2771   1.419       .  A
C2771      C2772   1.412       .  A
C2771      C2778   1.519       .  S
C2772      C2773   1.407       .  A
C2772      H2777   1.083       .  S
C2773      C2774   1.423       .  A
C2774      C2775   1.519       .  S
C2775      F2779   1.385       .  S
C2775      F2780   1.381       .  S
C2778      F2782   1.383       .  S
C2778      F2783   1.382       .  S
C2778      F2784   1.385       .  S
